5

C 1.0436375037673178 -0.051983463020872284 -0.07378757400162468
H 2.1285857229394893 -0.057017115586390235 -0.07427057460028931
H 0.681510852562529 0.1782640612782498 -1.0727400678960846
H 0.679877445904185 0.6913349626516173 0.6249381111013343
H 0.6803730331243149 -1.0346679861443973 0.22476579773257938