9

C 1.0429891804421176 -0.04721967265281163 -0.07359521562238691
C 2.542649509572879 -0.05951061688853687 -0.008501501807526965
C 3.254603755338637 -0.408084100939552 1.0565068626331504
H 0.6921304638102546 0.2781068681780994 -1.046308051588703
H 0.6325268612229589 0.6387419461846802 0.6738048382080233
H 0.6231116340899818 -1.031878818294148 0.12566247496253857
H 3.0792296822852663 0.23148262586877322 -0.9110598414008
H 2.780488904965619 -0.706079967651841 1.9861876681847128
H 4.339116488120615 -0.39938802945459967 1.0375828984295214