7

C 1.021308738794829 0.0865697936148026 0.037801614506911205
C 2.480260824533931 0.08082760635803116 0.040645517828241697
C 3.6723751683018446 0.08255685822102185 0.04657156049812593
H 0.6354891405046481 -0.6809456669785283 0.7233048543066778
H 0.6359443492897888 -0.12034711742923472 -0.9604551580119112
H 0.6349959023687015 1.0553073404163875 0.3652194322168742
H 4.741427982524348 0.08743517333987126 0.039384109747753485