10

C 0.9660503376975519 0.06614507855969985 0.06753491393309938
C 2.478774196427759 0.04026277818546234 0.08048473026401372
N 2.976798069992096 -1.2381514630510506 -0.4011187707732378
H 0.5865038099043524 1.0304027342722715 0.390483100730295
H 0.5552139292368313 -0.6953567695249476 0.7430477548481631
H 0.5867334844875705 -0.14152707800565084 -0.9331272334576495
H 2.843421564150116 0.3001157442634828 1.095326733125007
H 2.8615862399738763 0.8139915467988006 -0.5915144522826723
H 2.6695224040852814 -1.9859321388982603 0.21530197929912107
H 3.9838925599358768 -1.260595000481671 -0.40302042896844203