6

C 0.9082853699838002 0.052342530708630486 0.03931122010128511
C 2.367109240641631 0.05415228328193985 0.04090915301974774
N 3.5100719938937446 0.05090265941108277 0.03904668003723019
H 0.535717393137071 -0.33713490100392174 -0.9066176888373323
H 0.5371394016190187 1.0616306901997703 0.1780471041674
H 0.5361340959231855 -0.5792148254885046 0.8488889944401226