10

C 0.9251708028461854 0.0297002620625022 -0.037695893166248565
N 2.364903628242018 -0.024558563948485202 -0.068365629425963
C 2.882947131308003 -1.3088705884282978 0.3467323236325804
H 0.5826078704985381 1.0344903262080183 -0.3105605872359637
H 0.484332167942222 -0.24076530132382196 0.9363116457313783
H 0.5174996810535712 -0.6651123262140335 -0.7829707142546017
H 2.751349772197367 0.705167523276837 0.5130739173103589
H 2.5885309377205425 -2.073913544562334 -0.37705843051571936
H 2.5371980597352537 -1.6361976579336006 1.334719983910048
H 3.9842313551657424 -1.2811825062474764 0.35871616329958417