9

C 1.0418209601516377 -0.09549422112027864 -0.007408553897114565
C 2.552773408990555 -0.08748279029902466 -0.04123607436744768
O 3.088123712561228 0.9657850669304248 -0.8243680161885274
H 0.6722736942416332 -0.8815139782027401 0.6484088863241226
H 0.6301465359258507 -0.2676453494710248 -1.0080558777078394
H 0.6630733999492986 0.8659342955656342 0.3492037577083702
H 2.9299839046313534 -1.0626181645708865 -0.38710522002335745
H 2.9490364814997005 0.07604742782711053 0.9587985568349063
H 2.7512228637669787 0.8642587206547881 -1.7272524661406297