9

C 1.0930630768545866 0.017734718910435043 0.014958837463876863
O 2.4983732101814153 0.0275081891806834 -0.015710330044213138
C 2.991523734309841 0.77180812553132 -1.0959949748689841
H 0.7923951941435106 -0.5790425022772809 0.8821055802045291
H 0.6811730046539559 -0.44826265761870215 -0.897323777918704
H 0.6839590879082242 1.0297517346477703 0.11130452287113536
H 4.088057474836015 0.7387284547820807 -1.0459966587951604
H 2.6657792616584346 1.8166041559400472 -1.047040828411538
H 2.665675922915996 0.3479119226899802 -2.0555831011599377