12

C 0.33291114915674586 1.009423651211806 -0.15286867810351026
C 1.0152886699519876 -0.34303482003955726 0.15442976452705556
C -0.34561809280465017 -1.0330720522183636 -0.07201540767885088
C -1.023117770673521 0.33155661120104507 0.15647732724222987
H 0.4235288633163968 1.2594564814000135 -1.2118890797552633
H 0.6183379297543059 1.8811679212346561 0.4367010958951855
H 1.327247922434671 -0.39872918341591346 1.1989644595999
H 1.8560628423843406 -0.6425743094928149 -0.469280690279509
H -0.613854207226345 -1.8532009742727609 0.5882895831924141
H -0.4462302437261544 -1.3588334207146644 -1.1088234027255308
H -1.3046100231406956 0.4694278656228087 1.20625172912895
H -1.8709088643024239 0.5975639393960294 -0.46665736365611066