14

C 0.9207740668045368 0.13471380853109013 0.07974398603649042
C 2.4379293389080905 0.06968384167188353 0.04507290502316302
C 2.968607133221936 -1.1755555703937957 -0.661891730475128
C 4.483391259224297 -1.248829442733977 -0.7014190697165941
H 0.5813745615944078 1.0367795043551822 0.593589088928507
H 0.5055336626043095 -0.7233136892758589 0.6007815158812093
H 0.5099343448812991 0.1524096219003381 -0.9280269025978132
H 2.8366777714478917 0.09108744227675238 1.0644908597662242
H 2.8392574404854503 0.9554936998546857 -0.4578073987185441
H 2.5679342472078956 -1.2012783542912737 -1.6822360050405039
H 2.561694185787164 -2.0692674267935915 -0.16042949016356722
H 4.90812737476405 -0.3850995437287155 -1.2247858261278195
H 4.835235535967445 -2.148832345985235 -1.2119536811622473
H 4.900709234444021 -1.2619587475813183 0.31143670682719626