14

C 1.4589461235200258 0.6779649525359449 -0.03698095744512658
C 2.925746202522889 0.4114077727291416 0.2399588396477376
C 3.096406387491587 -0.7504076342244727 1.2137808147709084
C 3.621247336570828 1.666229982257217 0.7586103780317647
H 1.3254828144546298 1.4898478611507542 -0.7600429794106545
H 0.9327562777127921 0.9655432097594512 0.8750287661483038
H 0.9576112370222837 -0.21379480522630726 -0.4362790679782777
H 3.4090740667986235 0.12644191101278865 -0.6999503615582242
H 2.6412372493693743 -0.5122902898440548 2.182751437745817
H 2.6265456510319485 -1.6574303395308114 0.8443353071160281
H 4.149079183917455 -0.9711164374697087 1.4035496042264888
H 3.528721472289602 2.492936961741666 0.04656837127890281
H 4.691330489215336 1.4830983037936953 0.9315559423103493
H 3.1762324211443635 1.9902911423285967 1.7057973799108201