10

C 0.8570350655277015 -0.34179547848004843 -0.00917293048016567
C 2.052816635066003 0.2376922983283436 -0.08130785189946921
C 2.7055510965281035 0.8994142648116547 1.0228041995883104
C 3.9035677977894174 1.4773616103854461 0.9494578903134999
H 0.40699132931700227 -0.8278974745032588 -0.8671095656701279
H 0.2942003615387407 -0.35509083462319974 0.9104195550416679
H 2.5980240503669525 0.2302668464932911 -1.0268523148024817
H 2.1676125264221975 0.9037568241846844 1.9703774141494275
H 4.473361820243187 1.481388526872094 0.026183486506009355
H 4.361421147322436 1.9535356409110831 1.8077352094165986