12

C 0.993161915844462 0.04298917220773345 -0.11058543445609824
C 2.4890809038564154 0.025506609372211254 -0.07315766391883022
C 3.2217786846924352 -0.25717345442118184 0.9982494263784407
C 4.709978614552686 -0.26825926968879193 1.035528628663857
H 0.6153648455308668 0.3080442842551271 -1.0995149383500826
H 0.5791050308990388 0.7589410037773309 0.6102494133595611
H 0.5729009986148571 -0.9431834176899714 0.14354488150085315
H 3.0033355392131527 0.28353448365609824 -0.9982118729928747
H 2.7167720701625178 -0.5156258713559141 1.92997944399962
H 5.1342055052930595 -0.006536277287669688 0.05510688613145585
H 5.098940125104291 -1.2531261143967258 1.3172853431647658
H 5.099609131204923 0.43696567799842717 1.7776201073102131