10

C 1.0325603376239023 0.10283422054548702 -0.015705126376971305
C 2.5589970497021346 0.05577160210556253 -0.05700260872178732
C 3.07530280336407 -0.8978727451121028 -1.0277824223574694
C 3.470392873419783 -1.6863213484878463 -1.8372840434015718
H 0.703148461343531 0.8283692607850949 0.7222841935685334
H 0.6264779172969659 -0.8775399087133559 0.2520877340303008
H 0.6243469885535894 0.3828542400578516 -0.9811907343823648
H 2.9631061861884134 -0.19990669239439735 0.925402372097122
H 2.9540416985100784 1.0514746597131668 -0.30521767460897264
H 3.8355390963338847 -2.391097180481013 -2.5520898243913077