11

C 0.34249015171797176 1.0299547499256931 -0.13868172442947366
C 0.9899197373918149 -0.33584698808876723 0.1592640115529806
N -0.3217135378435415 -0.9658951663280249 -0.07107609913176673
C -0.9934461983716493 0.3279092509668945 0.15318002046302176
H 0.43528723753380044 1.3102213255377655 -1.189544465977702
H 0.6239184104350385 1.8650970991798965 0.49889820741017854
H 1.3470863736898167 -0.3966694076750067 1.1935070614295187
H 1.781464403226301 -0.6762798208430725 -0.5076615513632452
H -0.5717072567894087 -1.7109665027545846 0.5653771736334805
H -1.3155877831791942 0.48008312977384376 1.189443856491892
H -1.8320503350356536 0.5186089635338327 -0.5153191736705593