11

C 0.9416966189008513 0.08600663667993269 0.013070931110868825
C 2.432623424624454 0.022939187826397436 0.027869289530631957
C 3.1688629194736073 -0.756981533171623 -0.9871430801586187
N 3.214368326441687 0.7049464303286923 -1.0069091167463367
H 0.5035256337152598 -0.692676264090516 0.6480811558104428
H 0.5551709461067594 -0.051445834357248206 -1.0020550594170445
H 0.5812560236166708 1.052963205465072 0.3890393537963174
H 2.8865333459719174 0.11226716925500668 1.018202499958523
H 2.5812849953534713 -1.2652522547162555 -1.7391234164705456
H 4.1036029563464504 -1.2384288609347467 -0.7307529755940244
H 2.5898229295057784 1.063824007600611 -1.7216716504051741