13

C 0.914364118120311 0.02329042000419231 -0.07324037671872985
C 2.4310101996375706 -0.035786042067993275 -0.07817418669388372
C 2.9638955070145125 -1.4437461555299236 0.13954642388592395
N 4.422256432121542 -1.4465699825865386 0.1658945268583286
H 0.5641849322352701 1.0410497959137728 -0.22711122793296873
H 0.5087559980250467 -0.3151128813674551 0.8840482749615438
H 0.48865982508743594 -0.6002711126991148 -0.8581754202823512
H 2.8527275242139263 0.6089766126941929 0.7050769179646766
H 2.8188973623738156 0.3437298742249685 -1.0259850700858621
H 2.5295890059095285 -2.1058212596996766 -0.6311857544026207
H 2.6063561317606827 -1.812579868676245 1.1029189397796935
H 4.793706522659022 -1.1493864137640732 -0.7253404331074058
H 4.775924329343633 -2.3808980701216016 0.34054483514171724