7

C 0.9220505216472842 0.06375721172806117 -0.059837683293453
C 2.2533232811239814 0.06426598159644356 -0.08594431361729134
C 3.000607264752226 0.057301635179741454 -1.3003675624591449
N 3.6192468078113564 0.051911769488190956 -2.272880875192381
H 0.39336571860510783 0.06178233260947165 0.891672343875728
H 0.3335247614130638 0.06421727891308429 -0.9632543173682624
H 2.8430914022634957 0.059131673405057615 0.8231408941740658