11

C 1.0487581447796372 0.056790435001568045 -0.13434975246829237
N 2.4971922499424917 0.08581820586469181 -0.15168256806778024
C 3.1320048719650466 -0.7430013824778866 -1.1535150245104322
C 3.098013739463218 0.7280446521547153 -1.2967011659656702
H 0.7092184117419924 -0.7831008915407404 0.47619372580199176
H 0.6105581424585295 -0.04915709433351558 -1.146537424453959
H 0.6740049358130658 0.9782418572239161 0.309415578108508
H 2.4805470245138133 -1.3161762191635438 -1.8256274549077747
H 4.044433570821371 -1.2512256775608461 -0.8491537052470626
H 2.4352334085204563 1.137871956557823 -2.05706175293858
H 3.9889712468313845 1.3245148307924193 -1.100382219252891