13

C 1.073382658495307 0.04363388926341612 -0.053829783936663614
N 2.5186515337870747 0.09770714135006675 -0.049418621283706464
C 3.0213679217407248 0.9418027277000283 -1.1044969308041714
C 3.0203666959187974 0.5031339185665933 1.242372589815259
H 0.7284786653197416 -0.3224055246074505 -1.0238369066998134
H 0.6099991430334823 1.028472741703295 0.12095947378488989
H 0.7197673845999102 -0.6419307099317908 0.71207737929178
H 2.6772901900356985 0.5774626925070152 -2.0679819035551
H 4.11770520334911 0.9151008920383894 -1.113831531455329
H 2.706095525785413 2.0014745783607535 -1.0038824182776198
H 2.6685226114041565 -0.1851393153853419 2.016011733346375
H 2.7042747063985066 1.5199387874672674 1.5232187572544014
H 4.117858123762607 0.48133085030903167 1.2406439314592221