11

N 1.0763336656420168 -0.0111017037949773 0.0020831417233449505
C 2.5087893780116155 -0.015861405043325144 -0.09307317139485892
C 3.2671532322091266 -0.8036393944137556 -1.1285904525785582
C 3.1731086905025174 0.6985737587950872 -1.2117725503237204
H 0.7321852757602368 -0.9040280912127425 0.3143097773476299
H 0.6607311864176869 0.17831655656895593 -0.9034884831277024
H 2.9862456593494624 0.07635486931547326 0.8788106191356391
H 2.6830612171704553 -1.378356903922065 -1.8340581866375785
H 4.2119879416994115 -1.2466229529483048 -0.8596626492123554
H 2.532564682550586 1.1123043545982372 -1.9824777686490345
H 4.055934483435675 1.2922733698900906 -1.005278028233183