11

N 0.9693196466868225 -0.18122028630296652 -0.1622163138224182
C 2.389379949944244 0.1389448029512378 0.0029350109851639643
C 2.7980757074427203 1.2373357706141985 -0.9173002599567213
C 3.386094547123925 2.3684911015610615 -0.5423401522557602
H 0.7197846330631653 -0.9716753417044788 0.4147524248020006
H 0.7881234849529459 -0.4516767756988833 -1.117918297106041
H 3.0481432656737146 -0.7331682004762078 -0.16370175948919863
H 2.5487876893551547 0.4526822333102814 1.0413877584528866
H 2.619557475697203 1.0560395574614705 -1.9810294329534794
H 3.581311371430248 2.5792290942752722 0.5026903062016228
H 3.6788657410804397 3.1183965828339115 -1.2728609547535048