9

N 1.0202235657386978 -0.07215010110791711 -0.10118488370969045
C 2.473827997453872 -0.07190297286683345 -0.05493361422923317
C 2.9718490296680504 -0.8814208298357479 1.0494303945523817
C 3.3831201553295833 -1.5309942088670565 1.9653830757875934
H 0.6939245681269146 0.5536106336527535 -0.8201998194134249
H 0.6392859514237688 0.2691108227122364 0.7853422107876454
H 2.924229021451217 0.9361792530434225 0.038981678047542836
H 2.8415450750796882 -0.4858014153445076 -0.9948682563664143
H 3.7404926459352312 -2.117515308851662 2.7754142580156618