10

C 0.9315962998123034 -0.13909464042935576 -0.059342801677948906
C 2.4483280915039356 0.00044569111059305014 0.029454004637828674
C 2.9622995274492565 1.0843385945119028 -0.870723421370419
O 3.6581192830882494 1.996751771211572 -0.5254859686068587
H 0.5842289413353247 -0.9858873596403164 0.5333494362100508
H 0.6071334155135215 -0.3004907987963781 -1.0942382730917894
H 0.43438596669393564 0.7550599883841331 0.3080391268511454
H 2.9164090051549283 -0.9398377727052787 -0.2990701924412393
H 2.7784092568953125 0.19554142735908212 1.0462215041044427
H 2.6241916947308135 1.006274414982626 -1.929274573105437