10

C 1.052926389363206 0.04770120994833954 0.13197489224603925
O 2.423637721338737 -0.12635651248018503 -0.1737758931218378
C 2.933240771504966 0.7545627594957556 -1.062223290134057
C 4.1972147006523155 0.729974083766801 -1.4486324590818047
H 0.7863292652828888 -0.7180154607557402 0.8451357638266452
H 0.43559447475399754 -0.06754860166676914 -0.7632990647208298
H 0.8690924196079167 1.0372175391740515 0.5736281757448167
H 2.2265868126387693 1.4956641993131472 -1.4349332478641745
H 4.893988045046782 -0.016925894631477267 -1.0662759007111635
H 4.545952122411873 1.4556114846327965 -2.161146986846722