6

O 0.9036966551753819 0.158999039959693 -0.035340396298926685
C 2.1010203656994024 0.08061295765726863 0.0005443756940415119
C 2.83568368348651 -1.0759074491545233 0.45889238940065563
C 3.4871655587157537 -2.013290187739109 0.8314548269398789
H 2.749023924201319 0.9214750506366514 -0.33985932833404375
H 4.048976685543631 -2.855156610180599 1.1561298362608134