9

C 0.9316645628591409 0.017172020264800948 -0.05199145088575695
C 2.4325693802486734 0.05828251438492406 -0.019322879307245692
N 3.0698444249712464 -0.8412568859353406 -0.8225717842559243
O 3.044784458587795 0.839452328228743 0.6829137341983158
H 0.5181818459939268 -0.7378910443286498 -0.7282566645040299
H 0.5627564963855578 1.0059279618754438 -0.35731148407219643
H 0.5620134280203065 -0.16634488098649364 0.9534336777936762
H 2.5661673420004427 -1.4898272011389129 -1.4029613118103406
H 4.078653186485637 -0.8481899380478943 -0.8256105061084682