9

C 0.9032899632653972 -0.025304864298815875 0.018665096376784783
N 2.344850649974576 -0.0034236446382361115 0.05053317780539449
C 3.07340268257201 0.7947074573722257 0.8556551522790442
O 4.285255882928525 0.8392484408251293 0.8909811317561313
H 0.5770680518671781 -0.760088975254579 -0.7142373838710436
H 0.4869519508715797 0.9440932368299036 -0.26987028340944097
H 0.48537000818643894 -0.3243023481617684 0.9833349045622917
H 2.870962799698006 -0.6092454761861099 -0.5670253441954595
H 2.4434107426313174 1.4428220448568005 1.4911809100457547