9

C 1.0123880595026056 -0.1031603567729198 0.22985072483574315
O 2.3889321840406548 -0.09899797138176816 -0.05964848139980624
N 2.641225661572998 0.7396018826366885 -1.1111996757947578
C 3.869820273097165 0.7781016219671366 -1.4045684135764926
H 0.8776298751593627 -0.7843665490553408 1.0708703519112595
H 0.4366220217829804 -0.4705768639823685 -0.6286382215349093
H 0.66082224941094 0.897430856530061 0.49924163809965477
H 4.148142916595756 1.4238138099633646 -2.229416219943612
H 4.621779417455407 0.21452371686541086 -0.8708550592240302