11

N 0.9728582942406382 0.068205020895298 0.06354136434156063
C 2.4286677107600285 0.019610362770818242 0.06620604915712809
C 2.9756345227956627 1.2192896125605117 -0.6881600918888819
O 4.389740807302107 1.2039534621951935 -0.7672767006158091
H 0.5850366568841763 -0.6486694919157894 0.6648609457675154
H 0.613943948600151 -0.11145004540337503 -0.8644604606664628
H 2.8533108418150555 -0.8912329125189911 -0.37078891593074714
H 2.7630776596519926 0.07227419704199331 1.1056196489658674
H 2.5970558780464197 2.135402043021163 -0.24106698148176828
H 2.6260638693150646 1.195874036954544 -1.7273156804370149
H 4.741724840756357 1.3199877874557742 0.12250583426229665