15

C -0.761989046071001 -0.9856348122870595 -0.2482919058240563
C -1.1905630190470318 0.3883990307656408 0.2504592876788047
C -0.01042523751185527 1.2812707415799065 -0.12747441145852914
C 1.2427104870068157 0.37930543006697176 0.005958159335645144
C 0.7101532500697826 -1.0645659906236526 0.14451442863192335
H -0.8639761718545369 -1.026947854056436 -1.3374300348532389
H -1.352138104472014 -1.812982952787508 0.16581468520004314
H -1.3026452656570484 0.3556711965915918 1.3462656828758264
H -2.1355778955121636 0.7280758793254342 -0.1670447426899071
H 0.04670832460807396 2.1881272540439816 0.4764195676898206
H -0.12854570435477158 1.599202964327297 -1.1758748034833915
H 1.8348101783530912 0.6596313010200023 0.8824863992627725
H 1.8988825020137405 0.49062578879286317 -0.8526276720877727
H 0.7946343803297391 -1.399042053269264 1.1810149766925133
H 1.2798894504127842 -1.7713717334105592 -0.46393035247557424