15

C 1.4325849872875576 -0.1076147621206748 -0.4039974992577861
C 2.7167863766126215 0.5905988419734494 -0.047436666012414704
C 2.9016424998095105 1.2162178143360667 1.3032330015652183
C 3.721594228152955 0.02556059519421577 0.9157701752530566
C 3.5308020397394806 -1.2969752554601894 1.5994726338031406
H 0.9984054930791013 -0.6236470840340363 0.4557180557434025
H 0.6890825513558624 0.605906556411797 -0.7673028023449107
H 1.5912089415466963 -0.8553217991979793 -1.1860556631705412
H 3.1547234723199495 1.1484517902701634 -0.8781787109757029
H 2.112166933074553 1.0588616134833813 2.0260282076539817
H 3.3906593008223336 2.1893206582731253 1.3713684464751752
H 4.759375829454206 0.23810568332468646 0.654995500561922
H 3.8370711320386692 -2.1277949582961573 0.9585127919952927
H 4.122995270494564 -1.3553941885049907 2.51654666250852
H 2.482861830791547 -1.4723233464015322 1.8802416925188485