15

C 1.1665478072912707 -0.02711955513178821 0.2185956105628814
C 2.642195233164127 0.06668934346811606 -0.14875598718709407
C 2.9592672686927792 0.12494917907154118 -1.6238671998777328
C 2.197940959186694 -0.657719306180648 -2.651527733319998
C 2.1111527269674406 0.8474688706249593 -2.612792031093033
H 0.6025515309532614 0.8385896994132432 -0.1410665571608323
H 0.7092510263251997 -0.9238166733347678 -0.183045108226322
H 1.0505829966400726 -0.05736511543913551 1.3081200522310827
H 3.166242761334791 -0.7845808403107779 0.29411829734928063
H 3.0681822096544176 0.9620738451481143 0.3255860599699788
H 4.0347825165853495 0.18199686904429854 -1.8178195747147294
H 1.3246383701503002 -1.2053678803747299 -2.3305302746949685
H 2.7471745653526245 -1.1152220765403977 -3.4613340649519686
H 1.184779464819961 1.2855699518355037 -2.2736795605024125
H 2.600279802814178 1.407269801777168 -3.4005754987866808