11

C 0.002710115338523688 1.2450171832575958 0.001083622269036768
C 1.1749891169932278 0.32153022189799535 0.0036564195414199997
C 0.7318584085295989 -0.951058089023567 -0.001065295901931643
C -0.7298279049042599 -0.9555996107203364 -0.0047566677874299745
C -1.167856700018394 0.31849353142132997 0.004361292905563003
H -0.0039650267610322355 1.9049123091809999 -0.8741779792861474
H 0.003789398308413612 1.9051170051207638 0.874417341454263
H 2.1990884618111655 0.6458978241141689 -0.0034912424269451297
H 1.3504261863432305 -1.8449613757233865 -0.00012755434148170293
H -1.3497534302135241 -1.842798070860864 0.0034184478159196624
H -2.197553356156156 0.6410752895548565 0.0037710519112768917