11

C 1.3958002817033368 0.37754872572017373 1.0240340054944432
C 2.304148840207419 0.0034769278326032826 0.1397169638206097
C 3.083354931059032 0.9455107826500121 -0.7302882303559024
C 4.521851214385688 0.7609772070256567 -0.623883398392883
C 5.705930357613662 0.5898950055309414 -0.5223648253186877
H 0.8530435486781554 -0.34599147327240337 1.61942831522986
H 1.1742566723548935 1.4311010066776382 1.1858204987302872
H 2.5269099290412496 -1.0524198639970814 0.0003205754524847459
H 2.825584521241526 1.9821879879561926 -0.481557010448604
H 2.798473453483367 0.7916993681263969 -1.7794557949141299
H 6.754006994983623 0.4470930453298825 -0.4360543112736391