15

C 0.9558929278877519 -0.0030465794218099774 0.02576841623800468
C 2.4513555833047933 -0.08434138214336873 -0.06539709706663606
C 3.139019948631366 -0.8457337606270977 -0.9178270678838446
C 2.4971950987863236 -1.7347150620424399 -1.9260212252469786
C 4.643484157894371 -0.8432921824502381 -0.9220466449687899
H 0.6557410255701113 0.6956889147676912 0.8142128260497212
H 0.497630202671882 -0.9630495787144696 0.26271049095844373
H 0.5018455940050937 0.349594933002107 -0.9000873694963244
H 3.010399495704836 0.5314024148284351 0.6286800606929406
H 1.4078516684953415 -1.7079733060126299 -1.8927543504019635
H 2.81211499004051 -2.7808827690594056 -1.7724394064712867
H 2.811348637437652 -1.4616524209980413 -2.939351252078247
H 5.0477556942222055 -0.16962721758426175 -0.16563611408847714
H 5.032941711414968 -0.5335274686907164 -1.8983543370445626
H 5.028579848581866 -1.8535803380866431 -0.7279618965124448