13

C 0.8683936173891803 -0.17423142711268708 -0.12183791808967663
C 2.351833237721503 -0.26847207153338554 -0.175966324539149
C 3.1577853627772763 0.6270844583230178 -0.7399669321046655
C 4.601781094563832 0.5088561019676672 -0.7849590810789888
C 5.417493570279181 1.3932146535591532 -1.347010392972194
H 0.5088319218260497 -0.1733389244703168 0.9176984831255276
H 0.39183816420251877 -1.033027475429597 -0.6150343620378984
H 0.5123532064549721 0.7368692628511975 -0.6011677009106615
H 2.7971049240699806 -1.1515492128154927 0.2767436254456035
H 2.7275555176466915 1.5136310971512577 -1.210189431945866
H 5.025618611099995 -0.38773785144594497 -0.3206716545601682
H 5.029840395270527 2.298546916975561 -1.8200463488734233
H 6.4967505978025155 1.2573016768955567 -1.3515204962206098