11

C 0.8733674836551228 -0.07160113615204029 0.004212376919487656
C 2.375250010488487 -0.0740279506693216 -0.015134862953429487
C 3.10791590409114 -0.29832681373931497 -1.1102517438835269
C 4.52629983891939 -0.29185298241420976 -1.1194344908818683
C 5.725820720729275 -0.31093762743631376 -1.1725710002999856
H 0.48773532743863895 0.12899447714824683 0.9988708445747728
H 0.47459850207359927 -1.0391125966162305 -0.3246286251386609
H 0.4739814377119047 0.6919677560627467 -0.668779489035241
H 2.890239537721214 0.115180204831456 0.919017067152251
H 2.6225924868567856 -0.4858713537832336 -2.055601856861411
H 6.790307155074308 -0.3135786245961745 -1.2070570294232892