13

C 1.1465086980807522 -0.06591865240607281 0.24122230064279437
C 2.6219919482934695 -0.1419231857543807 0.007283228775426335
C 3.1807470129511093 -1.1292728591935204 -0.7036550110302593
C 3.47758768684974 0.9044283008697065 0.5669288698144378
C 3.058196265562277 1.9407223825348663 1.2929103958250723
H 0.6394590274327487 -0.9006295192083583 -0.2360008964678828
H 0.7376290253086537 0.8673427154102659 -0.1638382637886012
H 0.9215276506798928 -0.08760577397164608 1.3108157987541156
H 2.5761167341484223 -1.9146005798606809 -1.1387786122952346
H 4.245558645038205 -1.1711057593556637 -0.875409630153395
H 4.535329001958116 0.8061935493788599 0.36042276099726644
H 2.011821913946953 2.098536362534565 1.5206772002355844
H 3.7571032185727202 2.6801358799839887 1.6731606979950493