11

C 0.9915666659796275 0.06754207017715882 -0.1009652112576075
C 2.4380682624393115 0.04933081366410431 -0.06939696800758646
C 3.6418589008591375 0.02550246700974424 -0.03731890180220998
C 5.059850117878491 0.02246033716931791 -0.02564170378707106
C 5.8217582223067055 -0.9252523661498212 0.5264247868764648
H 0.6168271013649416 0.9774225602815015 -0.5783924760632811
H 0.5775508731360699 0.03868028483788618 0.9125624261534281
H 0.59475185133095 -0.7860928817839663 -0.6475291809811116
H 5.538720059124967 0.8785688256344267 -0.5137827187678778
H 5.387763909928488 -1.7817238896581191 1.0175091692890648
H 6.8982925282670555 -0.8542059448578295 0.49983975575329714