9

C 0.9740179781470336 0.04555680195768955 0.052873090542921816
C 2.417875406579132 0.03872724119869474 0.04682112577440726
C 3.6251737998020186 0.04707082024755412 0.04841843100104674
C 4.986861359552063 0.038088257763026455 0.05165486644825019
C 6.191533363851737 0.03972852260569804 0.05174479051432139
H 0.5820609348288116 0.7499957118933223 -0.6865705613236818
H 0.5852322833086432 0.33128718302152516 1.02709321437629
H 0.579542682236382 -0.9478400274428593 -0.19079063473835856
H 7.252814813134597 0.0438100216136429 0.05563036813032988