15

C 2.2536914695341994 -1.4263971885962166 0.3525358113002224
C 2.7796818066479427 -0.04365048305319776 -0.004398327429825958
C 3.240163798236834 0.7320780345617781 1.1870703277400005
C 4.463695051524319 1.1870952646304231 1.3851879385196901
C 4.923828971170848 1.9478653873114817 2.5818204517675722
H 1.890168368747529 -1.9515345561645039 -0.5421101689581495
H 1.4191155974345837 -1.356156126361171 1.0521392178692914
H 3.033139176487597 -2.0383819816686257 0.8220952685668479
H 1.99687008312351 0.5186568580247313 -0.5227595654892724
H 3.6160823395399353 -0.13201755685738892 -0.715743404137834
H 2.486074639153517 0.9073944725754367 1.9545060189681105
H 5.220000256349735 1.0016023498108575 0.6119902303322124
H 4.103742409769046 2.086922080312236 3.301344380995933
H 5.2928236534850175 2.943945242589789 2.305398694207785
H 5.736534870898914 1.4401993069461847 3.087181710489871