15

C 2.1200447270646228 0.5117622935442977 1.5284838370720857
C 2.5938486823500035 0.028504602697621746 0.16013301965229498
C 3.085926915912159 -1.386924589078592 0.16054119910213976
C 2.0937047886723765 -2.4596841046082467 0.4804303841356713
C 4.351567486723971 -1.683757680168339 -0.13757821927454883
H 1.8051232620697093 1.5599839475132729 1.4800668812269022
H 2.9314672235704404 0.4415476898568927 2.269670185040846
H 1.2745491554089468 -0.06871614466637498 1.9077250764483262
H 3.3853879722243763 0.6850962800360613 -0.20066908892038632
H 1.7522400439975598 0.10973372253042556 -0.541907737788001
H 1.2298857586779524 -2.40819679934921 -0.19934544106979107
H 1.7008279347536468 -2.342966800603165 1.497620370278733
H 2.5271871267643653 -3.449139145290222 0.4018260787527707
H 5.070324876902833 -0.897015597063947 -0.37451284160894116
H 4.718707919528786 -2.700769061122122 -0.14301823658884694