10

N -1.1279995389934214 -0.0025534745013600637 0.002050727274004097
C -0.3388381843340421 1.1169885639323531 0.004885741092948595
C 0.9690549786696961 0.7067961687311477 -0.002842192174707373
C 0.9699754614549289 -0.7084872738942108 -0.0018741119849677338
C -0.33941536556951213 -1.1140709903389459 0.004486007277104881
H -2.1285743055186295 0.002781207263724256 0.0030774818195156827
H -0.772920152486694 2.1052252705712053 -0.002367416965006497
H 1.8309141501523531 1.353770091836227 0.003925271556816795
H 1.830040525864223 -1.359332922061971 -0.00531978150392986
H -0.7696387214379599 -2.102223574895936 9.96241350182815e-05