12

C -0.3738161747820788 1.1818965547278324 0.09895317115758599
N -1.2306526373025748 0.004754513728692446 -0.03312912526652615
C -0.3753452351439694 -1.190079317291582 0.08056195601960217
C 1.0275314837414367 -0.6670993566834872 -0.04880281164197467
C 1.033787425988102 0.6576537507327641 -0.040584966834552254
H -0.5099165042850217 1.6671902121209687 1.0724879710279525
H -0.6282136509678337 1.9410119168074138 -0.655360325992917
H -1.6603562163904808 0.001892616975537803 -0.9412880618364773
H -0.6268608036208274 -1.9346745806699164 -0.685194779813545
H -0.5155602873579673 -1.681264634190195 1.0489937143589525
H 1.8984892894046284 -1.3006394884430932 -0.08073444551888335
H 1.901845983988692 1.290442612878061 -0.06519306391147904