14

C 1.027086346613746 0.01473471586911092 -0.1417720322946618
C 2.5276517473713205 0.0250156479667091 -0.07270580643160578
C 3.3261681065573896 -0.7716985991269711 -1.0739719869941444
C 3.3329945346454193 0.7141998298200861 -1.1379403191126132
N 4.551630501515225 1.4315251936757605 -0.8781963195109064
H 0.6048484061000842 -0.8757963661118243 0.34854090854140324
H 0.6750428197052538 0.011550433152597388 -1.174743655132507
H 0.6007192807171984 0.8975677530635201 0.3491380533194756
H 2.947805757235927 0.07191848821921892 0.9245937262458955
H 2.793353645948065 -1.3174105678685795 -1.8393024859350076
H 4.228519820165084 -1.262511199340952 -0.7267482816014356
H 2.764036148972337 1.160319964204381 -1.950064615571165
H 5.192627109405809 0.868275832163254 -0.33141754196671297
H 4.372521680290035 2.2800152455842277 -0.34952298110501445