14

C 0.8379449901981773 0.010750462975741625 -0.19892845427251715
C 2.306801625403072 -0.13920308526393246 0.1058736078705035
C 2.662829210725824 -0.15305491168370314 1.560316108534984
C 3.1472163226589225 -0.8757198121921637 -0.8582542712105907
N 3.256780981732735 0.5775190175281317 -0.7453850482074816
H 0.2546687975054046 -0.7866122576537465 0.26809268262686653
H 0.6486698642945187 -0.0188213977176594 -1.2723778934272536
H 0.46109035414498645 0.9656091388156354 0.19632379163641317
H 2.1905000652037403 -0.9941453580383012 2.0771684292109245
H 2.318886319859774 0.7657255074074728 2.057094138452449
H 3.739915257140226 -0.22260506871049457 1.6906871630825748
H 2.6600896350593524 -1.2979934413523595 -1.7403688338118448
H 4.010060504443577 -1.4288332856099688 -0.5053670957048694
H 2.771764340480505 1.0235541958232837 -1.5218639766844635