14

C 1.0127022257255347 0.06386771774243565 0.039570206282220514
C 2.519781924216246 0.05802211818627331 0.07335349213022654
C 3.264049958011832 1.1176445781590527 0.9045588740704473
N 4.224563195955025 0.07075041668944632 1.3055248711765515
C 3.254600958797973 -0.9736364722634304 0.9530620426872881
H 0.631254391023982 0.9335300296942165 -0.4994522663672358
H 0.5931661921840307 0.08303413052711472 1.0453741714366942
H 0.6188824898435493 -0.8315444642328217 -0.4657351157334959
H 2.921967914376656 0.03126147588872281 -0.9434496236119454
H 2.624038211343898 1.4852753582136353 1.7176386671892754
H 3.699747924318904 1.9712142753546837 0.37885431640373163
H 4.509740945670821 0.09367556567207448 2.279821585576164
H 2.6155678272288356 -1.2993226982975412 1.7894061973755402
H 3.6822975928543853 -1.8568997234516735 0.47023773653988493