14

C 0.9016148088177002 0.10264989417002356 -0.15667648981815419
C 2.401370868505391 0.1143778317423901 -0.005338070438358029
N 2.925016032257173 0.18784717263047512 1.33449153575333
C 3.2137562355305276 -0.7074181506848618 -0.9554280371525603
C 3.2178596211030106 0.7902930577921315 -1.0496544228994618
H 0.45566448969576323 -0.74272045777455 0.3735243694022379
H 0.5972982577288161 0.04206895851671284 -1.207382677897888
H 0.46205759408438896 1.0212615949418524 0.2548850232629943
H 2.6060472206079326 -0.5870882135864065 1.8864055897070566
H 2.609235997845082 1.0357218757826325 1.7937114648111268
H 2.6948692810643595 -1.2609621288233415 -1.7290353900500497
H 4.103462995307481 -1.1845463488600922 -0.5608290956733233
H 2.703801466144433 1.2544388569804066 -1.8844003422242084
H 4.117907156458996 1.3048204119411553 -0.7130717680099211