14

C 0.8827917057881154 -0.01265381503112208 0.09930000095773626
C 2.368915076477828 0.02916505034363165 0.027553480592075116
C 3.1899762354498624 0.09014423245070079 1.0675132193635768
C 4.682189869418314 0.11619248785433313 0.9705646680745081
N 5.218746937140109 1.2887056624632358 1.654335017567489
H 0.4862175238297587 -0.9246979094808616 -0.3459286858372404
H 0.4363257548673822 0.8251571094883459 -0.4461214730876123
H 0.539452452930402 0.03799920114196311 1.1319821170534168
H 2.8023671750888366 -0.015627795479090406 -0.9776571435470474
H 2.791978154951586 0.14422125251849882 2.0756453291233754
H 4.977746518356273 0.03807348610547798 -0.0914117663677486
H 5.092663757983741 -0.7703368551878556 1.4689893770621294
H 4.914649800625792 2.135640361330906 1.1772064964856708
H 6.2218689371202585 1.282849036437948 1.644369724223393