10

C 0.8645201967012649 0.011654586962947045 0.06378850516734264
C 2.3562432591989104 -0.023935612282842276 0.049995852554849576
C 3.0772212789889766 -1.068831153029401 -0.3823164907099758
C 4.490670541785422 -1.064642867235887 -0.38451778865759223
N 5.64578805348908 -1.0869584452157581 -0.39811855262682905
H 0.4994506636561495 0.9514228790477394 0.4624863581989402
H 0.45231213284468647 -0.797688044115324 0.6796797560571594
H 0.4544869173702062 -0.1158023853594738 -0.9330117659889751
H 2.895085857705299 0.8404914648340678 0.41870731037382025
H 2.597485447692976 -1.9626015633064784 -0.7641456953093464