14

C 1.037966405363396 -0.240805865676884 -0.2084628733352105
C 2.50825874182439 0.02965479645189438 -0.16847569983544053
C 3.052358963354787 1.072649386491924 -0.7975501955731267
C 3.338344893336046 -0.9080878765129168 0.6587991316752112
N 3.1477865239081892 -2.300863431338494 0.26624418234976005
H 0.5011866769412082 0.5322078917034151 -0.7574770515417611
H 0.6254357011579413 -0.3055056202152668 0.7959558120842337
H 0.8405493141102702 -1.2012822596379873 -0.7010458775866769
H 2.4482503571791 1.7714814853317813 -1.362768597716649
H 4.129160363370121 1.2493532717027669 -0.7675485551872393
H 3.103973421973204 -0.7219635926621046 1.7167065254889229
H 4.396972369760148 -0.6616884385754023 0.5193353686042503
H 2.2239929127164695 -2.6215482721886887 0.5426488564990074
H 3.8108160600337735 -2.8894197128582415 0.7533441235232937