10

C 1.051686687532314 -0.0012814386146429184 -0.08693581410448055
C 2.543471888682404 -0.06683367363588248 -0.05062923221862417
C 3.249025795344661 -1.0343857799460183 0.5328867741210255
C 3.232283111863974 1.0084456099430614 -0.7000926825758365
N 3.7589621544589384 1.8898882455964963 -1.2280199640972078
H 0.6204338987247638 -0.8633988704439883 0.42932381517516255
H 0.6830783100951492 0.004015922010005186 -1.1147539552021584
H 0.6895428544315407 0.9118056141901401 0.383135584668854
H 2.7460386167956146 -1.855139901074755 1.0267142731444034
H 4.327651307675609 -1.0316130567902824 0.5254309169907221