16

C 1.051544907930631 -0.06649108676297767 0.09197145129479393
C 2.5730104255790605 -0.0968182668578999 -0.008193053980822044
C 3.0485904963192905 -1.2252595479392097 -0.9116125690233196
C 3.108804962519292 1.252398503869818 -0.47041812347033496
N 4.5541599486185715 1.3085106899309482 -0.4257290989967432
H 0.6654097866593653 -1.020273714807913 0.44801955931212956
H 0.610733512688292 0.12494740191587617 -0.8949360342935245
H 0.7117791747829935 0.7147900062005166 0.7738115781284395
H 2.976767465007699 -0.2777111560935009 1.005162971890099
H 2.6231125132665625 -1.1242511689090053 -1.9112944464769166
H 2.7425151593666826 -2.1977967963851865 -0.5199383951609166
H 4.140796384975397 -1.215825781850004 -1.0034506241258423
H 2.6146222557258807 2.048022349585488 0.12334583469517843
H 2.79323106050545 1.4121528616803598 -1.5125032315598659
H 4.880653446047642 1.2993410425019143 0.5430308121103109
H 4.901054668480989 2.1619522559622255 -0.8407503304775529