16

C 1.229610942394232 0.020140261145266576 0.48744342479160685
C 2.6769489357159104 0.5065188455521267 0.41477426398455564
C 2.834744872273638 1.516541655711903 -0.7130753619343195
C 3.601737527517078 -0.6856728300633455 0.1841756824917523
N 3.014451297821239 1.069855522013825 1.722940466749963
H 0.5495928856377793 0.8639228100433837 0.6889168173864691
H 1.114058356583512 -0.7061577843952302 1.2888244383756169
H 0.9278814641086126 -0.443486947766626 -0.45462996726753996
H 3.8601076381663755 1.876704543246389 -0.7687895792131679
H 2.18282453628866 2.3818657573732644 -0.556332605791789
H 2.579084151296755 1.0864972284451098 -1.6866486571562338
H 4.6461078049789 -0.35646643842734227 0.15852180031211435
H 3.505624830249805 -1.4115437190835374 0.9859140715749483
H 3.3829704473018225 -1.1700742093336653 -0.7723813721322885
H 2.4211042749036 1.8708977339475605 1.9168628102515282
H 3.9738062775357035 1.4123851208691975 1.7178112104211178