16

C 0.9516030208036561 -0.021380819290393583 -0.05077639268374111
C 2.458167294722621 -0.0057936233173948625 -0.05770694450440206
N 2.99405707082567 -0.654750062999674 1.1280319769706353
C 4.434865296474669 -0.7356807563000435 1.1457193413320625
C 4.924403994715401 -1.482355931536655 2.374330232329495
H 0.5525264195352834 0.49887889892447157 -0.9298205033936313
H 0.5568822996896173 0.47753867225296376 0.8394219339285973
H 0.5625460780594567 -1.0415224235644327 -0.06603425439139346
H 2.82761128455849 1.0275457172740199 -0.05775897053865189
H 2.8337536999569815 -0.4732990240068761 -0.9901910974825043
H 2.598581177301821 -1.5864188401455903 1.2052667092806761
H 4.829484298659215 0.29070441154186516 1.1575906410172856
H 4.843594768840705 -1.2070479053784702 0.23449203075032132
H 4.573520157405194 -1.0047918879571147 3.2840925643895944
H 6.017605683355415 -1.5164082140567094 2.3946522985821868
H 4.569790471739747 -2.517155354342787 2.3678541578009717