14

C 0.9035230418381419 0.01375071015767763 -0.01381265801879795
C 2.428996288709061 -0.04027390223518189 -0.11010928767916409
N 3.1189948523295383 0.42197893643695594 1.0989586860441036
C 2.882245320157706 -1.436922522978224 -0.4131190946820069
C 3.4228880165435887 -1.8349087511140432 -1.5491593554427388
H 0.5719188951875906 1.035524019223606 0.2164999822743762
H 0.5444777203324551 -0.6401084429209218 0.7794521710835943
H 0.4372535404925456 -0.2858500204148925 -0.9500431978987303
H 2.7500471070605412 0.6003424760749598 -0.9288412327865118
H 2.886542907729176 -0.18166876507574714 1.8732071760264026
H 2.7818343495680704 1.3550610103891458 1.3432384468960787
H 2.7056568238548593 -2.1632446069677234 0.38146641371441947
H 3.617380583109931 -1.135850220329914 -2.3645164283275797
H 3.710708894436668 -2.861645540313543 -1.716116466217892