14

N 1.0568589667302084 -0.07816526506178878 -0.017704828170834346
C 2.4960619633449883 -0.018704477723848045 0.10121689443795644
C 3.2317725245542115 1.0471417114442976 0.9464843266980169
C 4.237990711256221 -0.04649339201797457 1.3371400089149614
C 3.180387574570449 -1.0903253303948506 0.9476365814555889
H 0.6980728911914166 0.6671219948064696 -0.5979883345702419
H 0.6217741903376446 0.008202667630160957 0.8989684845463899
H 2.9087705227352147 -0.023758084098413314 -0.9120840783227223
H 2.6205296215609852 1.3397342641764554 1.803481640326429
H 3.5938620378287958 1.9496964713569844 0.45592094461687077
H 4.6147690665927925 -0.054654436917344604 2.3637126341769585
H 5.090771353105732 -0.060773845790633094 0.6558543774735791
H 2.5554771183089886 -1.3565044195750653 1.8009441251440723
H 3.4990434756196365 -2.0113780429475554 0.4520997081107045