14

N 1.5385751874555418 0.011089602884012366 -0.6811867718616506
C 1.831426371485764 -0.21604265950172877 0.7265810887946123
C 2.938418761611211 -1.2384728661407969 0.9260663838088544
C 2.996139539697119 -2.478143063853341 0.11002963891217078
C 4.036067719988481 -1.4155168817823531 -0.07177701632162876
H 2.217223634800448 0.6392014738667396 -1.0960501024822338
H 0.6315221999139432 0.4372874002008824 -0.7927844935839329
H 2.103739628137389 0.7000339215072748 1.2693072641440792
H 0.9248282330184998 -0.6038191188109197 1.1965066545538603
H 3.226895231635763 -1.3380055586136494 1.9648449969607849
H 2.2598374902797285 -2.579311580073553 -0.6875438277290038
H 3.275446945734774 -3.408539418122245 0.5942140195905331
H 3.991371199330317 -0.8493318686576271 -0.996745844666099
H 5.034271891718546 -1.6066031565000458 0.2978793937900095