10

N 0.9905817144400552 0.03844199135784311 0.014073950663814162
C 2.1450269822550894 0.040620279666449904 0.028019778866503472
C 3.570174479679148 0.04208149330270342 0.03161782772334238
C 4.3076767991160105 -0.6943805786804949 -1.0490619201744726
C 4.3077371149644454 0.7886965696002655 -1.046040126006072
H 4.012620002671307 0.043187097909614204 1.0229750783747977
H 3.7110097599760135 -1.2014940211267322 -1.794940477789538
H 5.210368598833805 -1.2220178098559842 -0.7559897143112723
H 3.715837238018834 1.2975114552244362 -1.7834057736273037
H 5.211425976306124 1.3099387386637513 -0.7468476064717832