13

C 1.0091521114138065 0.16101293002155972 -0.06473974485914817
C 2.502310626815437 -0.01374172334773056 -0.05784080030403879
C 3.1916275481239804 -0.7997623922543887 -1.1454009196260202
C 3.3483604268270706 0.6759013287515723 -1.0815023158742114
O 4.621430707139761 1.1417832059605204 -0.7304702386752908
H 0.5063399872440001 -0.7176234102655363 0.368745842704668
H 0.6367548340465707 0.2802779222700796 -1.087347141674128
H 0.6959478232340219 1.0399699592817229 0.5113821926673704
H 2.955563982797963 -0.09951851327508944 0.9210729449744399
H 2.586716800110387 -1.2155219332917193 -1.9345809146507467
H 4.053854704470794 -1.384070842022791 -0.8600155514661288
H 2.836541399099883 1.272605101473543 -1.830235334415768
H 4.514314877694199 1.9346987676484082 -0.20979831974049895