9

C 0.8974569181070591 0.09707689238093038 -0.0772074957109037
C 2.0990547632315097 0.035625863560306545 -0.09541294556237889
C 3.531502528954052 -0.0483161787080902 -0.06360095444163276
C 4.276554382848476 -0.7260576950974159 -1.1268628506051457
O 4.2499020953814455 0.677651833776745 -1.066059165227818
H -0.16442990906398083 0.1598844736051481 -0.07334184322799306
H 3.983618732793895 0.0031939360880579026 0.922591647313832
H 3.7246877152623608 -1.1694563786363494 -1.9488941899466194
H 5.232605518819934 -1.19430270899817 -0.8853742303645495