15

C 1.4939026171324805 0.1725129312041055 0.4071966867894117
C 2.9632749737605404 0.013266272345470747 0.08787752077108475
C 3.2116570310389254 -0.7184233596501718 -1.2297704282269655
C 4.688147293203212 -0.8908278490672211 -1.5390748019578104
O 4.929330308797792 -1.5220517030882152 -2.787236523514197
H 1.3362245057956064 0.702974451002827 1.3472427486825396
H 0.9979496517906761 -0.798133496763884 0.489631332001127
H 0.9763819456334584 0.7340383736508583 -0.37580860056123105
H 3.466958232923547 -0.5212507138825107 0.9032748143244996
H 3.4354426992929645 0.9986014074411419 0.030586266758456906
H 2.7380045851510673 -0.19286266715651643 -2.0501754493461024
H 2.738669361473714 -1.7147512115384567 -1.1805980057051608
H 5.188721357104559 -1.4262284693760507 -0.7225827884372443
H 5.168226155220594 0.09160623653739904 -1.6115038824610248
H 4.512700783455572 -2.3849026562530993 -2.7671014411595016