13

C 0.9969242686593789 0.04140547088107354 0.03973978243976127
C 2.481826477227118 -0.00430537538358287 0.06592008014880092
C 3.27793991832172 0.24016581661671801 -0.9760081743299256
C 4.76980439191686 0.1771854678209049 -0.9190141332322754
O 5.316512145985736 -0.7622335245143336 -1.8238316698503036
H 0.6187246755797678 0.78852879457202 0.733870955911654
H 0.5652185773048586 -0.9232827436801966 0.3476456946730392
H 0.6168431730401686 0.27537484822877545 -0.9642377842643494
H 2.9466702008953574 -0.2489160034939385 1.0168845272812455
H 2.854969683469983 0.47966088819317665 -1.9488820561278084
H 5.100528213882466 -0.019485322711849305 0.11441966413661007
H 5.210403496236265 1.140680833636967 -1.2124544279699654
H 4.8815266245337 -1.6105987366484347 -1.649462260367807