11

C 1.046882733564707 -0.08055846776653103 0.023139231459216748
C 2.5294608666844485 -0.0038147405080884342 0.06549078482223473
C 3.2425122219912286 1.1178195515115887 0.23927116242966112
C 3.2817839584469968 -1.261944064026021 -0.08374798127128623
O 2.7698382216816375 -2.3422332546641864 -0.23997604684713542
H 0.5921026759572204 0.8985526905107564 0.14661368921933934
H 0.6699673866077046 -0.7410626501433605 0.804133804727079
H 0.7169281753490965 -0.5090991080524194 -0.9210284665477937
H 2.7662053128160524 2.0829889369469385 0.35026196402211823
H 4.32775577963733 1.0831122907942419 0.2569739491953507
H 4.387403480556821 -1.1524000867011392 -0.04836795422206775