11

C 0.9528515617521321 -0.08255053129898166 0.06637125132165582
C 2.3983274497289213 -0.09630497854426157 0.05409773732687219
C 3.6013309620419975 -0.10083811224182665 0.06554957645869817
C 5.057359897448141 -0.1212951439753259 0.029319576637187643
O 5.605671691417196 0.6068018425304562 -1.0510124719899796
H 0.5649308723156435 0.7153370207595487 -0.5876034258478685
H 0.564416041051606 0.10161615122616022 1.0790816392966518
H 0.5351661014639462 -1.0318145088838522 -0.2784369191688031
H 5.3997647312385 -1.1644429181691898 0.013435316278350314
H 5.459445866450986 0.33253023316611896 0.935640698041006
H 5.1440290479016975 0.331840248095603 -1.8480008252818918