13

C 0.9659222873002498 0.004058393178402831 0.10935489461162658
C 2.446806048445985 0.11359950503739125 -0.210683028474617
C 3.1128649603097562 1.3573679818040518 0.3552914729124738
C 2.9124053315891927 1.6455914171467876 1.8159392328304886
O 3.7783609486481717 2.078524373771903 -0.34876386515589297
H 0.5504806760451454 -0.8923183071321673 -0.3554805356909392
H 0.40879708093303296 0.8573482443039807 -0.2803497582744181
H 0.7757538825586645 -0.06871814007351151 1.1798609209596351
H 2.629322537482455 0.11117341172275373 -1.2869212026873786
H 2.9746984602853126 -0.744910851805596 0.21004675748953117
H 3.028433569190468 0.7404173750216546 2.4190396485872663
H 1.8933239905328016 2.016265200680678 1.9822674578978865
H 3.6154716537435982 2.4079188242879677 2.140111406784185