13

C 0.9147568781025992 -0.09845032741593983 0.13236275094363067
C 2.424090060384313 -0.05927250279373154 -0.03803821834508881
C 2.851638114754928 -0.4296085980461133 -1.43869067464748
C 4.33061512349737 -0.40564398696269377 -1.6778447056374326
O 5.159579931369915 -0.11960899397566518 -0.8508318194321183
H 0.6285753845857343 0.17600264649202904 1.1525845768861729
H 0.5174945634939841 -1.0979758620123519 -0.06908014063725211
H 0.418311200628655 0.5998910066734784 -0.5411171387709967
H 2.9085865464654144 -0.7336658933358222 0.6756903090183378
H 2.806446069913251 0.9366385983925811 0.1946731268045685
H 2.400762480610924 0.23414713351374952 -2.1931241417671603
H 2.5062710199486777 -1.4304840624783202 -1.7213192474456531
H 4.644772445963606 -0.6764242174437446 -2.7103936349650195