15

C 1.0210280383650245 0.09520918247614828 -0.10203539452828278
C 2.525856841850879 0.12644504174273435 -0.13986214065510139
O 3.027564989533799 -0.7249879929560594 0.8663250631192357
C 4.435795735921891 -0.7562390733514732 0.8939296449126545
C 4.872191424107642 -1.693132936996575 1.99308972586433
H 0.6073209620258668 0.7473280897585641 -0.8736344720042064
H 0.6576633604062091 0.4435542983758017 0.8784937863873876
H 0.6559672558289896 -0.9179115058017012 -0.2666321013188093
H 2.897739882670229 1.150959782601848 0.01707003651908571
H 2.8895900017151366 -0.19850023407425174 -1.1273373549815573
H 4.83324794119008 0.2604830944839801 1.0641178361581356
H 4.824426721820476 -1.092833507225871 -0.07219416958393671
H 4.504174173716474 -1.3410518423283107 2.9632681422108065
H 5.968385831837175 -1.733083045063159 2.050333280161599
H 4.493988841319644 -2.6968290970951854 1.8177533784381121