11

C 1.1525470486916174 0.07438268768642825 -0.37947945556294727
C 2.455497161591792 -0.07327596215806055 -0.18220161395694898
O 3.108260250100075 0.570702797895202 0.8177576949669738
C 4.440261488024046 0.36257555464471075 0.9456942554594082
C 5.152087665377181 0.9552697833956131 1.8965901731335637
H 0.6812055724267535 -0.4639569135917703 -1.1930477507716015
H 0.5502126397439939 0.7087946423830864 0.25017954195777936
H 3.0808957536329493 -0.7057376454316758 -0.8018738136606353
H 4.876757173520038 -0.3178086032605755 0.2149555558133102
H 4.695991918841349 1.6240451468465984 2.613074526211962
H 6.209367563532334 0.7577946435807056 1.960863983189025