9

C 1.0135630688216655 0.048608373941664985 -0.08331146019248428
C 2.514728077680208 -0.016759690510214163 -0.12570603488141607
O 3.1293797376240566 -0.8954972602980318 -0.6910273414993259
C 3.2145505306179394 1.06316934397956 0.5637613394994286
C 3.7699461414361437 1.9592307441578873 1.1326082405114175
H 0.6006018783498956 -0.7966959686812555 -0.6256535431483911
H 0.6774505290625317 0.9905014870602095 -0.5292741274935666
H 0.6749175034080825 0.0417998890980507 0.9539281201371569
H 4.277601399435991 2.7471116602558916 1.6330844069649009