13

C 0.9145228509905299 0.028937163492416065 -0.023386275405096864
C 2.425363383403916 -0.1841817000985623 0.05024638700020512
O 3.11705180911485 1.0398017627221938 -0.17273778529472153
C 2.8302866177634267 -0.804581859339715 1.3540823615634363
C 3.4148339458405155 -1.9766948179482018 1.4839942892218825
H 0.6533726760871573 0.5034693298139217 -0.9701415678947184
H 0.5754785458356589 0.676601254204204 0.7942816425379812
H 0.38119303703242385 -0.9219069109026726 0.06091314845831926
H 2.742840395695538 -0.8416509732338314 -0.7658095298963917
H 2.8360998920362417 1.6781890858697626 0.4798330753527982
H 2.6032704900291272 -0.21175218452464423 2.2450799654073537
H 3.654783017705226 -2.5897817156435528 0.6072495266114337
H 3.6876908624272886 -2.3890686054228953 2.4470064628551578