13

C 1.1083978740246736 -0.014153783088943855 0.6269251775684577
O 2.4889762272673073 0.08104028358485817 0.3871220690573273
C 3.106364477056899 -1.103742633101461 0.11383126745109995
C 4.404372360004062 -1.1850932448124682 -0.13867021208212235
C 5.098855411914988 -2.467198887696851 -0.43620986714291765
H 0.7498775201684629 0.9905458718644756 0.8320715805341672
H 0.8959296351033497 -0.6577750179859261 1.49793644177252
H 0.5766586280404051 -0.4092579126139724 -0.24936233085119616
H 2.458428354858471 -1.9813530822074852 0.10938310446905955
H 4.990848837675145 -0.2730957547102835 -0.110380605740451
H 4.399060488227739 -3.309200603373234 -0.4334637834840801
H 5.889451403941927 -2.688646219516604 0.284203815239925
H 5.570664278443462 -2.4489131548778516 -1.42921279056394