13

C 2.8591295536175165 1.0375091218567551 0.45853213692215944
O 2.2801362366945943 0.20907654020732266 -0.5150658920940222
C 3.0945976777910786 -0.6425891746058977 -1.1759161376706617
C 2.3087785668462972 -1.451035652787142 -2.160543478818247
C 4.4100547021471925 -0.7435124828215373 -0.9923397672645563
H 2.0522328291954417 1.6443267785462714 0.8724226020188289
H 3.610493174455872 1.7021477677533974 0.0039493975336473966
H 3.330943328684375 0.45147096348913274 1.2539728062711604
H 1.541332133208197 -2.0179067410609908 -1.6464293305752367
H 2.9606118298048205 -2.1280405407266083 -2.700949534971925
H 1.8097891943941116 -0.7874196933919817 -2.8679176696331408
H 4.960997645552316 -0.15431219463884308 -0.2771661420195648
H 4.96773998054178 -1.4651384074495082 -1.5767199946430397