13

C 1.667586665460226 0.6269644378864563 0.04502396270864971
O 2.9301200149232076 0.08145128550426586 0.31219645669804275
C 3.0757685921956908 -1.2112397433390862 -0.21047439695932124
C 4.464006354704756 -1.685296566659359 0.030457025804537106
C 4.768815359895105 -2.858398123353592 0.5693136714768694
H 1.6359277763263238 1.63014975736262 0.48204401316584966
H 0.8666574769898113 0.02598853628095603 0.4939124519526884
H 1.485570621904859 0.7016757299271794 -1.0369690008479315
H 2.8787452711900996 -1.1957013647381751 -1.2983230242830495
H 2.3493402995792185 -1.9026388430501093 0.2357435787731044
H 5.256632374175768 -1.0094865902085064 -0.27267064786319434
H 3.9981071192835445 -3.550710472411825 0.8961115015240135
H 5.794908490371279 -3.182951646932313 0.700348546776383