13

O 1.0600042647364998 -0.0015423193406737098 0.053760828819525174
C 2.457018729399668 0.058185270927144296 0.08154901541601299
C 3.160814224770004 1.132691047198875 0.9409508771600825
C 4.170687216502796 0.04558129326369987 1.3487200622076976
C 3.136092472274982 -1.0120085056905932 0.9311262885877822
H 0.7278848293104866 0.6830254108342007 -0.5394345313117348
H 2.8688920571873715 0.05509629141759202 -0.9304293688936695
H 2.512393643380252 1.3996285043121948 1.7835783350319934
H 3.520817613271629 2.039769456117968 0.46462969061827797
H 4.516785557870306 0.03439089385930262 2.381872772054108
H 5.04789573839022 0.032241277873622576 0.6913957970509057
H 2.4810845643378934 -1.2778525106343666 1.774198223852837
H 3.472707195549833 -1.9272749924768209 0.44236963877641067