11

O 1.1782609532870971 -0.6886062941691211 0.026431116938358232
C 2.219000364937198 -0.07628787909020611 0.04528358491479553
C 2.9406921226193754 0.3129963377028781 1.2643602734153787
C 4.457462648752145 0.34065249862979363 1.1846199438419243
C 3.7075574724549134 1.6133644273466445 1.225305078475241
H 2.709942127387172 0.23599213797201812 -0.8944106702063461
H 2.47903687522882 0.009023888270939381 2.1971204286992894
H 4.9093694530645315 0.041663983394352164 0.24518769912844282
H 4.989090612714719 0.01562641322752488 2.0722542447157366
H 3.6380688341448697 2.2024821534274213 0.315840149958857
H 3.7020024043979536 2.200703202880566 2.137040000693275