11

O 0.9133313393174528 -0.036333405018176224 -0.011025464685292457
C 2.318128794737291 -0.0007108018036528956 -0.0832453258369303
C 2.8520386269652973 -0.6253139390611979 1.1874027980022472
C 4.307237039892297 -0.6409490093348854 1.2276920588974534
C 5.501110702856841 -0.6490611971716889 1.239567603901311
H 0.5523032385977755 0.3579649030181845 -0.8034017740195433
H 2.688369390161336 1.0338690894266782 -0.16369264399547434
H 2.692877871973271 -0.5607870053907023 -0.9468147822739298
H 2.463377860258222 -1.6454772289364465 1.2684416211116414
H 2.4635059862076303 -0.06676340335503345 2.049721276577679
H 6.567433496216238 -0.6555180341417356 1.2572770928621821