10

C -1.2634682574298033 -0.007653307896147174 -0.12454447498071713
C -0.39793977870042047 -1.2475108672637352 0.06555615821296287
C 0.9571499277351274 -0.6097007222500571 0.04668153827174218
N 0.9470897423949893 0.6433424697183819 -0.1101463716552955
O -0.3402083129512264 1.105247163497206 -0.22062294747264882
H -1.92847434976918 0.18373908439281839 0.716163935867298
H -1.8480741381504133 -0.032987248953157494 -1.0421620659978539
H -0.5147087500044996 -1.981494920149864 -0.7412997454629725
H -0.583748471427019 -1.7707736010190147 1.011125816158864
H 1.899672966648631 -1.1238474056100263 0.14560883062491695