8

O -0.3770742768278536 -1.0535155497626998 -0.001065614942960945
C -1.1418957165312151 0.032945464236541926 0.002508110618501593
C -0.38551981613250413 1.153552554506339 -0.0017690606112894653
C 0.9383287551191564 0.6339458278776521 -0.0003151601911945657
N 0.9475008307600133 -0.6728379922352876 0.002255720101974043
H -2.213718266478958 -0.13300980957574635 -0.005631787299487105
H -0.6986450500101682 2.1828808533680264 0.005941828952129967
H 1.8743702121259258 1.167388374375839 -0.0007344087702660686