12

C 1.0664205243581706 0.04365985886256494 0.02852779871597734
C 2.5667546848809217 0.06454884362050013 0.04655191176703265
C 3.313434842952869 1.032233203418631 0.9102659703250832
N 3.1473096227396486 -0.7722187300701285 -0.7168284654544339
O 4.53201750578137 -0.6832945848853453 -0.6286639417659996
H 0.6471199768488578 0.7895365820344363 0.6973829022367609
H 0.6825751528139223 -0.9313677446814558 0.3323311006507967
H 0.6832093033310387 0.24146144821526042 -0.9753062086508247
H 2.629514195131582 1.660805158624733 1.4839975313644904
H 3.96441697839902 1.6620013269614657 0.3070031228017766
H 3.9607697357549547 0.49108637490261287 1.6006269178903776
H 4.819572477403666 -1.3664133516656505 -1.2353317193463051