12

C 0.8060944055783087 0.08674553283433352 -0.03197398532057108
N 2.2450135976830694 0.1035155064368419 -0.010455254936983526
C 3.071831911969696 1.0463518808758465 0.526392599205736
C 2.4288613333399467 2.23276345325239 1.1987041340222968
O 4.275067520574053 0.9320393604784541 0.45335965763292413
H 0.4861341481903933 -0.8192523942225052 -0.5430215466455195
H 0.38312184787218845 0.9388798960097186 -0.5626476672745688
H 0.3795802589774748 0.0580472910598579 0.9828071211159347
H 2.742698145106677 -0.651584881413068 -0.45187889616941024
H 1.3377802083181274 2.2349227438589425 1.1923365782416366
H 2.790534155787899 3.140909063015012 0.7045127697746226
H 2.784321885021481 2.265278130918987 2.232919667853936