14

C 2.940836222235209 -0.8143998975637162 0.17084719271555618
O 3.847729967642063 0.24832586351220876 0.07381527586557776
C 3.244847088285747 1.4291683368196315 -0.39718307574264694
C 4.313852885456142 2.4812442465291418 -0.5619571821984296
N 5.251730584545596 2.0812640610958906 -1.5961191958276402
H 3.489760305596675 -1.683417573118604 0.539282541027026
H 2.4934464119174757 -1.0559341597631826 -0.8033906230214093
H 2.1257582437538796 -0.5820054730951486 0.8725319059126809
H 2.478445485422413 1.778097187921822 0.3151221058283718
H 2.7634132953027932 1.2433001864255968 -1.370844273824301
H 4.779870189085502 2.654531451606602 0.4209509636306161
H 3.8316986843848935 3.414297981247142 -0.8645476486754896
H 5.671095485207934 1.1891064918862364 -1.3340866530849351
H 6.008221674280353 2.748386631529999 -1.6761327570879327