12

N 1.0560329802520685 -0.028260844675284013 0.18431398345241695
C 2.472603492887598 -0.23275110235508778 0.08912045438747115
C 3.1412624399978935 -0.9783235016671139 -1.0477082935826965
C 3.2600176902336715 0.5009426499737935 -0.9367880325802319
O 4.524600136920342 1.004384942130639 -0.6207957626925402
H 0.5678460807768615 -0.9058470500238767 0.3414722183623179
H 0.6842289666568735 0.37739329108229414 -0.6642208144443328
H 2.9665022576975604 -0.3426560113339707 1.0501992814507233
H 2.5170906320363113 -1.3690727475623308 -1.844859976319234
H 4.022337525838262 -1.5521230296950184 -0.8208811651293707
H 2.6922071270685097 1.1044101614392863 -1.646823396870827
H 4.4157722096816325 1.77013731159903 -0.04991211150558884