8

N 0.946397111665449 -0.014699410043100247 -0.05082853645879272
C 2.305105975527479 -0.07930063689133345 0.013570379104060068
O 2.9138710536276022 -0.8118570837419096 0.7575032780863105
C 2.9751194913546657 0.8257706361426803 -0.9077768442740386
C 3.5719462788228613 1.5644421259541608 -1.6539329809277583
H 0.4181650030479648 -0.6071921857661168 0.5510658485767089
H 0.48153323928205366 0.6124160114716037 -0.6868867958537682
H 4.106348761568769 2.201983920083118 -2.3158253936019366