10

O 1.1389777744283471 -0.06026611068089946 0.46711845703333676
C 2.275245319101123 0.026678741479109144 0.10371476645136546
C 3.2761242898489056 1.165333719263391 -0.13545979409751677
C 4.269223699170781 0.05401756126063472 -0.5500749598134002
N 3.197840071186461 -0.9015825952171993 -0.27691156074157
H 3.541978262688127 1.7198395365141554 0.7666063197419152
H 2.98765248617795 1.8651495142627996 -0.920743889252859
H 5.136745555576639 -0.04898289804261374 0.09860361292585809
H 4.584721656229079 0.08179243635488927 -1.591354438962135
H 3.1519551793520453 -1.9005184976445517 -0.34105221733547736