12

O 1.0120295353094935 -0.058993859015819744 0.1616127393309698
C 2.409467867902777 -0.013136971326194423 0.11175904373354673
C 3.1533529764037436 1.022912739625639 0.9752696158693532
N 4.099352031048369 -0.05147478778229796 1.3499749325269577
C 3.107286414763486 -1.068881524572435 0.9684532254052254
H 0.6470219589930589 0.530867788014555 -0.5020459924878452
H 2.773249942378496 -0.023068996019080065 -0.9166190172572817
H 2.507628710832048 1.3549279454200027 1.7926206019316848
H 3.6081521768355422 1.8892365172742247 0.4867478696029339
H 4.382852689509025 -0.05889599131701813 2.313440277984777
H 2.440193417460482 -1.3818599233520212 1.7860192313950283
H 3.5170317939760665 -1.9595448506766424 0.4763042073370631