12

O 3.347862085510825 0.06507096066361795 0.9791735078647763
C 2.356376658939064 -0.16804024926015174 -1.8292349966347616e-05
C 2.846761363762217 0.36888323496042696 -1.3072801339828368
C 1.8643117127760924 0.922038922456003 -2.2636000814468025
N 2.8019276635027945 1.7975818963591192 -1.5687866920536386
H 3.0760238925290637 -0.3629663950602774 1.7975608282159679
H 1.415400981348501 0.3352414808382234 0.26837326780150295
H 2.1524637677446634 -1.2404561300056383 -0.09688826329633109
H 3.7393063264632915 -0.11817193129561239 -1.6892445227050121
H 0.8227533541686751 0.9346813988650922 -1.9662483728546538
H 2.0341347534612604 0.8209012657539548 -3.324754321063592
H 2.346234389460747 2.285745199029237 -0.8059157706905882