8

O 0.8518154395275426 0.005496883966981819 -0.17667352173864828
N 2.212897641480721 -0.030711546965934613 0.03021672477893674
C 2.8438845917228748 0.178319090229149 -1.0536482940940182
C 4.2605062920965855 0.18168985201543045 -1.0683223949051548
C 5.45764497188098 0.19364084168850798 -1.153279863742704
H 0.4961128723545528 -0.17249257435956836 0.7041167353489955
H 2.3089051671997933 0.3686611306319178 -1.9889803044831027
H 6.516742377913967 0.21340980862651446 -1.2017936982213815