16

C 0.2747817059188364 0.8213871371426027 -0.22419747644911672
C -0.7074983858037086 -0.21691973060354977 0.21971654962136
C 0.7200699827415834 -0.592281400317432 -0.039030447421309955
C 1.6214524672692028 -1.0152032748236608 1.0761104335303258
C 2.9882433312216876 -0.4237489421896758 1.2323243522410494
C 1.917274261497105 -0.1375963176944205 2.2401407366377115
H 0.5821404257895298 1.5642974512228254 0.5062496382447127
H 0.20973672333332502 1.2094917787241477 -1.239547169053508
H -1.4653462425828279 -0.5412619867353078 -0.48606668055971236
H -1.022725676792385 -0.18898629117092217 1.2521033003364623
H 0.8981857995750264 -1.1331443757770863 -0.9626961778167555
H 1.5461441087456567 -2.0728495698136364 1.302563389452189
H 3.2523822630692343 0.3733266896387595 0.5524741278940525
H 3.8107822652659893 -1.0741074239031745 1.5103000761352499
H 1.503822376365402 0.8630934512609226 2.2706171403334525
H 1.9959248459622185 -0.5967237710328561 3.219141837582626