16

C 0.6311099524623528 -0.500628137979175 0.860339043429844
C 0.03022596170555013 -0.48971670845588483 -0.5665507420243929
C 1.1931611100160102 0.4626365968853854 -0.9236889962292641
C 0.9559972179114746 0.9639128936880363 0.5233213096443569
C -0.4370714054875099 1.5915521360653928 0.41751462313880255
C -1.144590495025212 0.4831795382103387 -0.40231327749477397
H 1.5226899702335366 -1.1269177215678932 0.9321953388808741
H -0.044580397866600965 -0.6989719322512093 1.703859834371624
H -0.15867862788541492 -1.4106671786614882 -1.1213220798040997
H 2.1445955620839947 -0.06467903325745109 -1.0348485463783241
H 1.0398444433374885 1.1716600420392251 -1.7490413234813844
H 1.7213409137230862 1.528863092594297 1.0660277023241194
H -0.4209063550791771 2.5516640131767714 -0.09425608022546286
H -0.8887699236021006 1.7464444348460426 1.402713056679555
H -1.50828905991316 0.8409364369163106 -1.3717840768763603
H -1.986282418917674 0.030951960607541955 0.12770530354375442