16

C -1.0213854249910916 1.397823821235223 0.7685659932793841
C -0.882314551197507 0.4896945757159534 -0.4199709418473602
C 0.4194367937757729 -0.2705129347590391 -0.5697285398699251
C 0.26570993517988756 -1.5041285654009189 0.34046550717484786
C -0.6936473894029591 -1.065811998645882 1.4636242859331305
C -1.5758159095896067 -0.00028865537754095734 0.8300649054634387
H -1.7184038107028505 2.218484855982615 0.7072946347932574
H -0.11800762582079612 1.6121305204503429 1.3413006136332981
H -1.4635076365476642 0.7328800585551468 -1.3064778144567617
H 0.5952342004384317 -0.5652316446369295 -1.6055873744287383
H 1.2674545652434352 0.3408738747815769 -0.2642375262841252
H -0.1985946395863207 -2.314133683367106 -0.23040327074585615
H 1.2277731275928623 -1.8734284624353188 0.7226667114803275
H -0.1411167459072481 -0.6736633141675867 2.31790243562711
H -1.2878710448405746 -1.9035220495583234 1.8320705406800877
H -2.6488445107068284 -0.11285551404965649 0.8671591733620759