18

C 0.9674554803749557 0.105648432500305 -0.2502254729026487
C 2.4492417385701755 -0.031237422923324345 0.020177928287826667
C 3.102753346874425 1.1884447709376098 0.6803502469950858
C 4.451233564425359 0.6831406493235075 1.193494667231265
C 4.275643118429608 -0.8477044890639849 1.3959237359686971
C 2.8250036778117855 -1.1444697374112052 0.9872636871034631
H 0.5570462440350363 -0.7984843074002236 -0.6977281707584795
H 0.424790497885396 0.2963376265827713 0.6912390567973467
H 0.7557611740232635 0.9366839064988385 -0.920712518075018
H 2.9725685019500983 -0.21143671374825249 -0.9303722625539171
H 2.4629502227489604 1.5081388362138237 1.514311416200856
H 3.1924652181286053 2.041269944771304 0.0068627630090152755
H 4.743598649405976 1.185229319072715 2.125357679858293
H 5.2369588030123095 0.8880452650953098 0.46991443116888787
H 4.484911571960276 -1.1594038704745666 2.4164984851067577
H 4.975031732557274 -1.3892018393278527 0.7475607241318357
H 2.167555122307166 -1.0907474739008831 1.86203116662018
H 2.7084262738811273 -2.148913970508955 0.5604495902011287