18

C 0.8167952249818738 0.002179300726935905 0.12278635772290451
C 2.3230199330221866 0.038519285254106625 0.03214088100955706
C 2.784345779471544 0.038968807669860994 -1.417148328658469
C 3.0368161946157657 1.1480893334022753 0.860365402437567
C 4.066118852340338 0.09624400174888263 1.3283625575908415
C 3.0957634583033924 -1.0069409070465103 0.8850228566918531
H 0.3634470738686747 0.8652672243228204 -0.37264709191242296
H 0.4753745613261727 0.0003202861184647271 1.1602224158444538
H 0.4207482319188159 -0.9018379286715926 -0.36464730925796923
H 2.390391155778129 0.904188472449438 -1.9453874879812978
H 2.4341429202477114 -0.8615959995640599 -1.934186784862249
H 3.8780119495787013 0.06973859115293708 -1.4939482498885694
H 2.41427175928221 1.491843209708648 1.6913735575946742
H 3.401195272336575 2.013082777430793 0.3128816698506236
H 4.360888472487078 0.12251644453281287 2.375672410664697
H 4.974744108149157 0.12312620448537868 0.7177304929674934
H 2.488506593018257 -1.369227939976459 1.718316393579341
H 3.5096101238630513 -1.8644681038767332 0.3470562490317218