18

C 1.225064492913826 0.43035927435377697 -0.4221818632084
C 2.2691263933304024 0.00996375558349864 0.6058567253125549
C 3.182447926880303 1.1546447402038198 1.0419679297258253
C 4.39869215366421 1.4261252601105465 0.18041374337690763
C 5.404075298235378 0.3523687012115467 -0.11821899941757943
C 4.557506526375962 0.9207905891882815 -1.216440151361229
H 1.685169012387882 0.8843238464889815 -1.3057281226328972
H 0.5471703524927369 1.1765680529818414 -0.0009466399596235308
H 0.6216076928602737 -0.4159490170956163 -0.749351662576649
H 2.867886983347571 -0.8246672597825407 0.21444672012007163
H 1.751220558899293 -0.38587467585499435 1.4826287708859285
H 3.543002018101695 0.9595802141609552 2.070208681421434
H 2.5824528425790967 2.0704480502772022 1.1099010083601966
H 4.836561216959925 2.4060509868977995 0.3616566125898755
H 5.17709743102726 -0.6512767366245952 0.2133268435695633
H 6.450423100961978 0.6025026071514208 -0.08066919498241348
H 3.791120200720841 0.2754871346497313 -1.634732833870056
H 5.031433602214203 1.570705525153969 -1.9480591799020448