18

C 1.1300699409286927 0.39638538672909135 -0.6142106346684932
C 2.4370430545578334 -0.0023448353019209817 0.03912870495173408
C 3.2325483894472335 -0.9187008795185337 -0.8819166731906004
C 3.310069107287617 1.1560736497317445 0.48071111910969777
C 3.42271574607017 2.4358992421978685 -0.29583103568493024
C 2.7690301225240757 2.428082781285324 1.0594688127997731
H 1.295655052336386 0.9163535909065234 -1.5563120202668768
H 0.5242804997438313 1.042068049870059 0.023421179356149832
H 0.5312248289628444 -0.48980338260128375 -0.8440724026229617
H 2.1908227617483336 -0.5807044697841469 0.9503925656734203
H 3.508213676544011 -0.39861234211523017 -1.8037415645645698
H 2.655316762690354 -1.8041268016380605 -1.160456721450244
H 4.164676975569193 -1.2575784050732852 -0.4049446336833725
H 4.236759593362384 0.8292599496483096 0.9355072099488857
H 2.780918689993742 2.5775209638986114 -1.1576051937799916
H 4.395239667648411 2.8902357563129857 -0.3908332582147246
H 1.6936064010023608 2.571749620828819 1.0852282509040179
H 3.2883348899994154 2.878596704336736 1.8957264096719078