20

C 1.6327461543632664 0.31120889629131215 -0.5540153638813783
C 2.659789298743625 0.5119122718603779 0.5542490252552154
C 3.9564787068755356 1.087577087678299 -0.018956663262660125
C 2.9192260760127473 -0.7472196827870032 1.40632222895507
C 3.4120705229945325 -1.940008131880112 0.5932895099856734
C 1.6970706689373447 -1.131887234227394 2.221994153258037
H 0.6886025364890576 -0.07603546721527363 -0.1756212322274754
H 1.9980530657118039 -0.3806121550201509 -1.3099481302527307
H 1.4239258799836974 1.2604199255263528 -1.052579380911065
H 2.2588198328163656 1.2588083548839395 1.243461920361932
H 3.768013489446837 2.0375315842369894 -0.5102904618686712
H 4.694639188042896 1.2481603090151308 0.7605519753517753
H 4.397604283860123 0.4163474043337617 -0.7637582768639285
H 3.7114466959536707 -0.475716261297539 2.1080815507666277
H 2.6391338146070296 -2.3057751892861655 -0.09488375715407822
H 4.298270687598398 -1.7047111372996118 0.005591340378825046
H 3.66737495350381 -2.7680936236074265 1.2576748611193718
H 1.3348398298412931 -0.2908092032952321 2.8235518046524537
H 1.9283614983353132 -1.954304806096956 2.9078327945830402
H 0.8769415532867935 -1.4748199105721873 1.5928834914549792