12

C -0.7590507967505207 1.1651952955800084 -0.006549529652072263
C 0.6324732525121424 1.239021994050397 0.0011885807223845205
C 1.3872348912825703 0.07600367143641924 -0.0007951849014381813
C 0.7625866435043148 -1.159725494169946 0.001555389084182218
C -0.6285834382505812 -1.2371806882094243 0.0033828390590345224
C -1.382910417418975 -0.07001333928636438 -0.002019864364812234
H -1.3484547176874246 2.0742549191796265 -0.00039732728863610227
H 1.1154583617659475 2.2051014278630197 -0.004026101393000503
H 2.466115231302023 0.1372318722185996 0.0002506063577870077
H 1.3527741098238104 -2.068902504531829 0.003469611822956153
H -1.1208085314334035 -2.2048419736740894 -0.0030237011848013888
H -2.462888659328608 -0.1309220450404351 -0.006562649671128187