16

C 1.1251996534591604 -0.025630929541676596 0.14775563580563186
C 2.595659560315004 0.07940769947271428 -0.10469630784596307
C 3.195142129404571 -0.4890920584669834 -1.352875597974211
C 3.1275192359910613 0.9957890593178261 -1.1817437354350875
C 4.3269627869093785 1.827846950680105 -0.9309851094385218
C 5.583916814954228 1.4552794095510622 -1.069967500078876
H 0.8632762700243196 -0.9788397031817369 0.6091167788346241
H 0.554615064399744 0.05445272374075657 -0.7881907994920817
H 0.7737771542839339 0.7755959396961847 0.8200892247253203
H 3.2214166287838473 0.01822186705110734 0.7839134255986187
H 2.533796549801669 -0.9426792734841732 -2.072667157280843
H 4.169660120408818 -0.9721480888651554 -1.272305935691299
H 2.3511223554195024 1.500965832045423 -1.7500632191051462
H 4.118089590655274 2.8383815250051447 -0.5993135287818814
H 5.858086850264833 0.463359948370364 -1.4306069951018032
H 6.402205401733226 2.1267081655010127 -0.8405651704682471