14

C 1.0416428336869317 0.0787578213382659 0.02909107251066375
C 2.5459429182194606 0.047255840528294346 0.05987756501240661
C 3.309401052671576 -0.7408860210281979 -0.9480897636285254
C 3.333464136145436 0.767670472227297 -1.0132720924939
C 4.530219810627541 1.4807489891119736 -0.67426529328982
C 5.5268726903787035 2.0748701378671854 -0.3918317737738176
H 0.6202339399815577 -0.7708915448946656 0.552723939281809
H 0.679760710863654 0.0549991300598903 -1.0008323077052874
H 0.6655108511052849 0.989853498169473 0.49710610650897225
H 2.9873468462741406 0.09295029166033918 1.0427455705867155
H 2.7457854538975175 -1.250380088163257 -1.7246780604423282
H 4.222019618317971 -1.2356011151435875 -0.6443810598888234
H 2.741560851261097 1.2159218404873111 -1.799263676694868
H 6.421651768429404 2.6045948959823204 -0.1313357988316473