12

C 0.9373569204518487 -0.024807101485340172 -0.08556884908189595
C 2.2758009124716394 -0.02672501424150983 -0.08512664024914124
C 3.1538849425006896 1.1469907539950066 -0.09313816858816448
C 4.429724352280076 0.7009558226474013 -0.0934624728169766
C 4.429445105234656 -0.7626569602649113 -0.09642400931084083
C 3.1522088864307785 -1.2043255559447412 -0.0942995548412571
H 0.3784075319978965 0.8999923773844376 -0.07943206195446964
H 0.37843889355299354 -0.9577997163165904 -0.08263980347177
H 2.81683072962567 2.168765154748265 -0.08539979357273754
H 5.32211777343725 1.315326500417062 -0.09086819529628197
H 5.316264828313859 -1.3726181329555585 -0.09726167801613583
H 2.8130479462784073 -2.22320410791644 -0.0857204697131916