14

C 1.0428860116510092 0.10186340928185794 0.046103008679160645
C 2.525124033124467 0.04148270997266191 0.043281964425070506
C 3.3078035122330953 -1.0562998660543828 0.04501707855058649
C 4.74962135609746 -0.6490564511222704 0.052562215235826173
C 4.676223723595069 0.8392869243943153 0.05210354006884903
C 3.392850417256891 1.2231031112722448 0.04524704751763104
H 0.599392674064384 -0.8980284689261118 0.04080168925502213
H 0.6730807541966519 0.6347212645520025 -0.8382166092557184
H 0.6685071373873054 0.6369273609314142 0.9181805188438744
H 2.9657445421380855 -2.0791758130139137 0.044894620119167235
H 5.283932945238463 -1.0307586157221436 -0.8284621885896396
H 5.288525399848117 -1.0267437901309955 0.9276113125576693
H 5.546583607221579 1.4941396228206973 0.04440428142209689
H 3.0345890809307137 2.2404474408286257 0.04532431544227353