16

C 1.061521586389685 0.07720795213783979 0.05409905504967461
C 2.5867425867516745 0.07553351996946922 -0.011838258381839419
C 3.103800292054269 -1.1501696780186812 -0.783909687305922
C 3.418354437150123 -0.5995372504716628 -2.14148486751994
C 3.4134780462825147 0.7328388764851654 -2.1501803735354685
C 3.098186851432999 1.2923830884732692 -0.7961008586462717
H 0.6846683324461348 -0.8112518282992943 0.583508904519651
H 0.6328490447759765 0.06791633759011127 -0.9505311705564474
H 0.6854633214362585 0.957018181899423 0.57351260325277
H 2.9755026367756976 0.0829880748020651 1.0115147130526583
H 2.3647915951250145 -1.958546967215562 -0.8117653590426024
H 4.007349043818067 -1.5711233645797045 -0.32816801051638744
H 3.652354426651213 -1.2267340859507168 -3.0057788907115937
H 3.644377725359984 1.345395166822348 -3.014425284421205
H 2.365792455651337 2.105458789673921 -0.8415292393233493
H 4.003399460883004 1.7243925545990764 -0.3512639974843171