14

C 0.900225711491738 0.02229734602107097 -0.053208475337540743
C 2.3550034252299863 0.023418073528778865 -0.07475931553209697
C 3.558715291153209 0.015445365823236402 -0.08508647059490695
C 4.985043446597235 0.01846976325091549 -0.10613566809573687
C 5.730912042180518 -0.7264154538625667 -1.1847805367774367
C 5.736148645934388 0.771578840654108 -1.1768953733847316
H 0.4961344690355067 0.9264762918822624 -0.4990162349955489
H 0.5290304914524298 -0.038202881934062106 0.9674430089687162
H 0.49251738334112927 -0.8308803993104754 -0.6076723924487665
H 5.453701172082501 0.011697361318423204 0.8795808486974892
H 5.1295414514637985 -1.2259511034001778 -1.9396615388281029
H 6.640340722314847 -1.2407640219237293 -0.9013974669631841
H 5.137097752410189 1.2826509791073162 -1.9243504242653746
H 6.642234008112896 1.277631538504562 -0.8869911547425486