10

C 0.8615024242617573 0.033389122469988555 0.07673587887220767
C 2.1954163989873448 0.04235240620027899 0.07328758975181753
C 2.9463861136477982 -0.40246533061465495 -1.058000362102754
C 3.5971567556050674 -0.7595132132811525 -2.0123337683968128
C 2.9517548295272573 0.47097624213137634 1.2070521543549744
C 3.5972292605853724 0.8409183991668647 2.1507486503788784
H 0.30936809357374234 -0.3001255970880081 -0.7955657271410618
H 0.3031621737738494 0.3701152065872907 0.9440640171021424
H 4.157211143801675 -1.0890984270662407 -2.851502686642446
H 4.158904591457606 1.1625020352404383 2.99679894183708