14

C 1.3109887568140404 -0.39386222067217763 0.46111033128144513
C 2.595517903558283 -0.24303478065549566 0.09639439708496432
C 3.0321441947686707 0.5051142502138244 -1.050851935658604
C 4.3155746135015685 0.6559932001468461 -1.4074725472400031
C 4.752033633735666 1.4055295727462147 -2.5670776493379637
C 6.0317308461614045 1.5500602862598503 -2.920263963379896
H 1.0303802447637302 -0.9650664499040345 1.3369751779333314
H 0.5091356698502477 0.05600772093391568 -0.11566887579251148
H 3.3745974254800792 -0.707645782435675 0.7034116963560063
H 2.2571813240992036 0.9719567422349825 -1.6561534321626303
H 5.091776722940792 0.19128317766107883 -0.7996364873631907
H 3.9777274160184937 1.8642796299964075 -3.16487566790447
H 6.829505648086058 1.1013724001048224 -2.345784097703134
H 6.313592674844405 2.1197991994175185 -3.7942834886600196