14

C 1.615009111556461 -1.0469092263154205 0.11958166320578384
C 2.4471555950524095 -0.08700930324768036 -0.2726716952516796
C 3.120954407402356 0.8802443548398285 0.6371526984858465
C 4.649137633783431 0.7863071752577481 0.5346060989513264
C 5.340033229178571 1.7610515667282405 1.3724384825312617
C 5.88278690226692 2.573471499022676 2.0734650717687244
H 1.15785493222744 -1.7201905166058522 -0.5868183068023756
H 1.3800814302709619 -1.1886016994730615 1.174930712805656
H 2.6570485091621023 0.023272199628072948 -1.3327227676972293
H 2.8145785244559947 0.7178275030596065 1.6714724527879121
H 2.826743204798859 1.9046794435945134 0.3742782935600934
H 4.967392218939915 0.9322290258050611 -0.5072744676283565
H 4.972507466863613 -0.21494649582611366 0.8119419134782676
H 6.3657807158005175 3.288838926001831 2.6892744072208554