10

C 0.8909665826428762 0.07235294322380771 0.06956085528227679
C 2.0994936166349984 0.09514868336247558 0.03840917920325568
C 3.5069532032670274 0.08670025028523759 0.043840274417891525
C 4.257229610413941 0.6184929186262716 -0.9458805047009111
C 5.6637439034997445 0.6184256369715505 -0.9432175262752832
C 6.8705905136037355 0.6317663898554334 -0.973754890147404
H -0.17476717061803304 0.06454499720551413 0.08959328388256342
H 3.9968888536624423 -0.3720678154362533 0.8961800394287082
H 3.7657744668886357 1.0801031698706374 -1.796244245954856
H 7.934658497118434 0.646453508487958 -0.9864542080298566