12

C 0.8991254111532847 -0.06649610912940766 0.06926231178866721
C 2.100383489173032 -0.07245289260952643 0.06655643771925245
C 3.5493920392641143 -0.06054728260477089 0.06692598036994983
C 4.116308269304772 1.3404513720623847 0.328895214888082
C 5.559432732524081 1.36456405237409 0.32868835740344277
C 6.768436003287186 1.351885889326762 0.32457836991024347
H -0.16665549892966838 -0.058911826764078544 0.06610837905846918
H 3.92250744904556 -0.4391884985896374 -0.8878590003069788
H 3.917897081810525 -0.7434983011982804 0.83491663442709
H 3.7370677190067996 1.7184560276055678 1.2827600383342213
H 3.74153466871291 2.0264567499326067 -0.4481106096925657
H 7.8285152439180425 1.3465596489769314 0.3224571572586396