16

C 0.8670945706346103 -0.009676077364303107 -0.3180654216517419
C 2.3324992186544726 0.03638319806715338 -0.10150301271012015
C 3.021497652749136 0.64164306648921 0.8806109030380564
C 2.396180845221791 1.4228407472632585 1.9872556227270886
C 4.474003739229399 0.5427606341427634 0.8649753406193458
C 5.310093029565791 1.0766205519668393 1.7553715879282006
H 0.5119973072622386 -1.0474170868785933 -0.3280163631518811
H 0.604379495296235 0.4084087645551999 -1.2943258475626753
H 0.2977215897319473 0.5261957979776173 0.4379814945088335
H 2.9264789976179375 -0.5005945262207256 -0.8525036148751798
H 1.3064698426306671 1.4434374789876776 1.9204103659560496
H 2.7521253083771273 2.4539824817872566 1.9856715397013247
H 2.66229184249475 0.9899505364620128 2.9601390815747592
H 4.89596389501565 -0.03196348108718111 0.03472710837990284
H 4.965755359456341 1.6547267515807855 2.59359612737802
H 6.3839416538417995 0.9493359899962374 1.6605547478113862