18

C 0.9171427606279821 -0.21610950737641133 -0.5201376064193329
C 2.3976175261604706 -0.3025255864481025 -0.6526249736752299
C 3.2104420017910016 -0.930838449249596 0.19036844072323808
C 4.692264283178852 -1.015161201787785 0.05721344438011102
C 5.3835434383660195 -0.3578720325194226 1.2576390919366038
C 5.146807047809603 -2.4644883671794804 -0.08851893812347646
H 0.5761108892415415 0.816808914619548 -0.454781428184167
H 0.5630554623437359 -0.7468794465737655 0.3636121227061064
H 0.41587052102359107 -0.6584573024451871 -1.3933555654136305
H 2.830497577780388 0.2029705957990935 -1.514877972301729
H 2.7743929565491796 -1.4377238169161328 1.05030151139662
H 4.990614447009133 -0.47654663216492754 -0.847279486555209
H 5.0992265719791225 -0.8661410036526808 2.1840844863341546
H 5.097155069248101 0.688583767513183 1.349918584806171
H 6.470774214170099 -0.4153234525793927 1.1629524722993059
H 4.857442931645097 -3.052456221522688 0.7942117473361248
H 6.235619884525989 -2.533422321824098 -0.18411415190360156
H 4.695936970602177 -2.940797657765996 -0.9605035821678354