14

C 0.9805154767177255 0.06849933997239477 0.0030316763205855586
C 2.4618975881565737 0.061827405587181056 0.0029760827045739267
C 3.214022270547652 0.4267270740981983 1.046069656042955
C 4.638815024609396 0.42446892725528335 1.0494569018429267
C 5.839717367002705 0.43009112274335104 1.0947922687599418
C 7.292777941568914 0.4396572063137975 1.1337481438536636
H 0.5803654018380736 0.7125727334301961 -0.7778187374968663
H 0.5715170945384562 0.4032637902284161 0.9647056604495466
H 0.5758029829246193 -0.9369231185279141 -0.19187575739578167
H 2.9549834981390477 -0.2720144199742728 -0.9071992526090108
H 2.7321316387804115 0.755771407282936 1.9597288920777596
H 7.703733917552509 1.0721839764979866 0.344971254902365
H 7.6965256373409625 -0.5606342501832213 1.003234626151284
H 7.6550139570606754 0.8277851679480869 2.092915013134579