16

C 0.676439693369631 0.2376184927708837 0.04047797779081617
C 2.159056758255285 0.359963446893571 0.1270558075860662
C 3.013846264942868 -0.019894228899619924 -0.8113955364639508
C 4.503269551450218 0.1041252753352791 -0.7206850978307919
C 5.066688042492949 0.9869096681309262 -1.793394088194853
C 5.928204677218467 0.612212764571797 -2.7191760946005923
H 0.2808753593600874 -0.38323985960173723 0.8549930391996049
H 0.36693029717066517 -0.20172870284737926 -0.9112676057197924
H 0.1912262260079192 1.2165675499122122 0.14052640913063896
H 2.550145753736458 0.7991829398575127 1.048298145685872
H 2.622711932456005 -0.4527415764064828 -1.7364999231741296
H 4.9652699674738345 -0.8780509196121922 -0.7892953300593039
H 4.762385229329235 0.5114056817109728 0.26426550216318007
H 4.695297413956479 2.020389586190243 -1.786620532215167
H 6.31116273550553 -0.41006256863715707 -2.7486477565423613
H 6.299158506547681 1.2947159819427825 -3.4701317941736325