14

C 1.010550885124352 0.08868640138388871 0.3336772930860802
C 2.5040301343188274 -0.0967008248312268 0.0526873335739852
C 2.7924780626533323 -1.5088758331408159 -0.39408874711810066
C 3.3961857886195985 -1.8761534772071662 -1.5184852231537327
C 2.996146560604877 0.906811569108951 -0.8811140665740804
C 3.378618531052393 1.75207061347803 -1.6504407592990826
H 0.6657722205112641 -0.6555491028187371 1.0623154015393959
H 0.43767413644186504 -0.04485991461220956 -0.584542753208487
H 0.8076366345168691 1.081506321562133 0.7264057762704862
H 3.03662575402929 0.05295105416650598 1.0059629606958824
H 2.4508433061844785 -2.2737355502611862 0.30276827132919776
H 3.7490622027700553 -1.141722094210762 -2.2291852427849697
H 3.549591285566738 -2.9172309648040065 -1.7490080916500244
H 3.7120930789137674 2.498759692084862 -2.3235361393259137