14

C 0.9563743424791045 -0.03461042606496547 0.14638952629968063
C 2.4532490077419693 0.021964943758528026 0.08507395468324087
C 3.100237030641741 0.9535294843702432 -0.8906910870001755
C 3.185846329660607 -0.7539013308848371 0.8966452986351529
C 4.603648279742977 -0.7671906302722427 0.9037698806583355
C 5.809780658289889 -0.7816310798126048 0.9232823625098616
H 0.4904785600221925 0.6473683439452218 -0.5667862318863854
H 0.5865499068221285 0.22304055472553294 1.1459833652929987
H 0.5873038262948884 -1.0412742033956122 -0.06922743454291953
H 2.3679980187498124 1.5075243236066032 -1.4725524522587807
H 3.7457193514475984 0.40629791972051255 -1.5903368080458788
H 3.74411108212144 1.675035528375366 -0.3707345890506849
H 2.6910360429066533 -1.4210922008127296 1.5937278398024943
H 6.86625265602975 -0.7960616745135939 0.9487652768704835