16

C 0.9124474176128723 0.01815259147109669 0.07479759890276418
C 2.4445904157369474 0.014347434698288652 0.08108604856828087
C 2.9579000077232873 1.352843766126833 0.6199939572250407
C 2.958883604078418 -1.132691108128551 0.9561845306750967
C 2.9272545155680376 -0.17205487913807405 -1.2841075197060032
C 3.324659935420248 -0.318339928711285 -2.40982945710817
H 0.5275462145690603 0.15432507040277288 1.090561497575779
H 0.5162312444847907 -0.9300241292463869 -0.3146072070188025
H 0.5174874535045845 0.8187962265344885 -0.5515265675488074
H 2.5962471365229645 1.5028316003883209 1.6506194392117222
H 2.600839694475307 2.187275984265581 0.015676047370437655
H 4.0496463389578725 1.379612858648815 0.6345469615096714
H 2.5933593171934493 -1.0056609000854146 1.9796036171152709
H 4.046720275934586 -1.151757600905106 0.9760341189135211
H 2.5980809811329126 -2.0978493895480317 0.5824346902863031
H 3.6855961463447895 -0.44886151157649146 -3.4044641891781287