18

C 1.0339740923335128 0.24928575297739267 -0.16173675719582814
C 2.5235510922355666 0.0006277162756188081 0.07117927116066354
C 2.808687665612846 -0.06775269143798633 1.5637699315484392
C 3.017587520333807 -1.1962518203814192 -0.7023233973371956
C 2.9921896730737956 -1.0482021790052427 -2.1979038803547497
C 3.4458546301783053 -2.3124861414321884 -0.13651468287312463
H 0.7075589229472901 1.147368475214808 0.3693482349553986
H 0.44506952707145403 -0.5944389887266253 0.20599384454483724
H 0.8041740277445556 0.38651234776688725 -1.2186254611138334
H 3.062371151500848 0.8708592486775266 -0.3329438328766636
H 2.2466614504789764 -0.8707706888932388 2.0448868591028266
H 2.50887994295096 0.8688207414689891 2.0482805850919195
H 3.8674684037449567 -0.22370946253131055 1.7659287265572703
H 3.558100863172498 -0.16903466257086072 -2.5103139712361533
H 1.9708157686265098 -0.9355613746517311 -2.578970537941235
H 3.4309236625031385 -1.924900668011446 -2.6882976622354846
H 3.486756314533756 -2.4462393589516993 0.9357284815198202
H 3.7889466619149985 -3.147626263740669 -0.7335432554519239