18

C 0.7682224220434907 -0.4415006293616944 -0.0752787754790175
C 2.2642683828492567 -0.15205097290306663 -0.15088687826653924
C 2.820292886248204 -0.5389779327525294 -1.516233687744541
C 2.5652793993868563 1.3184631902837074 0.15002527799234797
C 2.2321577367469922 1.7368480555789003 1.5480777554318492
C 1.3965497946118028 2.7117410273695506 1.8791599965140668
H 0.5640436945875811 -1.5013811876840861 -0.24681765049034712
H 0.22512103872100633 0.1375688369475921 -0.8403967623494301
H 0.3581940415607124 -0.16710317758502763 0.8981829889402774
H 2.768781117637181 -0.7526884368610068 0.6113325317866699
H 2.3597628491558287 0.055317803848390454 -2.3117493501978523
H 2.6259938373435023 -1.5929006048811598 -1.730438809160503
H 3.8964239761988635 -0.37582934329779305 -1.5644781864389372
H 2.040316663175096 1.957453173478427 -0.5609822524490332
H 3.63915812155749 1.4916897285608532 -0.019331076753037735
H 2.716812473459543 1.1722842419594657 2.3380381023303505
H 0.8805008477715653 3.2983923932999244 1.121914202493026
H 1.2034056979248053 2.960562113443859 2.9181906152650456