12

C 0.9827922329808989 0.08126753443200438 -0.058388670323558635
C 2.4275355973071653 0.08326568539045402 -0.05297343293615284
C 3.6424505553831983 0.08069247157858617 -0.05236162377864482
C 4.9985897460010875 0.08143718192376419 -0.05436802765752411
C 6.207995414037211 0.08709156394192011 -0.05423790112711088
C 7.6599149516492195 0.08316367234049411 -0.05639723072702696
H 0.5961986232298128 -0.16795455540161608 0.9365640108496449
H 0.5940067879221825 -0.6485638103521015 -0.7664879569204219
H 0.5967222808248436 1.0727381330140697 -0.3324898123351199
H 8.046692116229252 -0.1824316633299905 -1.0373638384400095
H 8.05296001867633 -0.6334321034164951 0.6693200728236659
H 8.045414402400466 1.0706876241900956 0.2032436124535572