18

C 2.185558487861423 1.5973536807908932 -0.2668689838130292
C 2.6856957464515068 0.23174620436224744 0.1808887054324272
C 3.0380007369569606 -0.6520214940739749 -0.9629670220990624
C 4.239255805879742 -1.1775059799096659 -1.182086641630108
C 4.6059108586979 -2.051027451412181 -2.342666987046594
C 5.722259515865132 -1.4697288180898003 -3.191652326550666
H 1.8959796063644234 2.222195158996616 0.5934755690164425
H 1.3101584657844578 1.509200799496406 -0.9095173650762419
H 2.9558594293934517 2.1323728731398797 -0.8282885809126337
H 1.901854818520855 -0.2465258008583347 0.7819913436415397
H 3.5565655290412868 0.34919049402556823 0.8420894619165598
H 2.24314495104022 -0.8619187212313879 -1.6724117154758418
H 5.046181267606427 -0.965865017196315 -0.4782919986833087
H 3.715396496453909 -2.233041872779983 -2.9603348243321377
H 4.921358947053751 -3.034200971800697 -1.9628481069740076
H 5.433741646191705 -0.5093781518617831 -3.6217518979330623
H 5.991362898560369 -2.1486826160630055 -4.0021060114689195
H 6.622535521830967 -1.3062327203644584 -2.586651288933695