18

C 1.3328800777830392 -0.29165546942654597 1.2184486424821457
C 2.6952369129877036 -0.6616053314829234 0.6593022865653081
C 3.3797276630636475 0.4889761522421963 0.010828464647836409
C 4.558592148102752 1.0475399173471283 0.3110666896858836
C 5.073558620225704 2.218877860230573 -0.47231296702120357
C 5.457575328699468 0.5903187384106812 1.4117898159481876
H 0.8225870147536446 -1.1550172471381235 1.646102701920995
H 0.6867223673050891 0.12091304095071066 0.4369259572525796
H 1.4183155149027087 0.47663101065634345 1.996355131320216
H 2.5709361319519846 -1.4638251220621903 -0.07283541402926993
H 3.3137332678386655 -1.0877788517941454 1.458459453133051
H 2.824000709178939 0.9299778007597008 -0.8196292600098974
H 4.376749920694 2.5127409841821797 -1.2616836937013416
H 6.039327560965594 1.9902663379712673 -0.9286396017910953
H 5.242266329465661 3.0844457706356705 0.1831828460735632
H 5.064706837535995 -0.25046466436394704 1.9747438856634267
H 5.658829992459182 1.4132373374699607 2.106263062096317
H 6.429214969408755 0.29434958236036735 1.0027999249161617