16

C 2.531617257347059 -1.596501457436239 0.6759979388129524
C 2.5395276986315274 -0.20446767854188497 0.050408420292746996
C 2.981401595110329 -0.19599522716936804 -1.393528637452516
C 2.093346641474946 -0.08681600028138431 -2.385190395843399
C 4.400872122747923 -0.327225646855933 -1.7112617543635555
C 5.406029388497937 -0.36156334555996805 -0.8398452500161196
H 2.223358761007339 -1.5416617078387065 1.7236296980587886
H 3.511392530600281 -2.06057577404468 0.6277867900667062
H 1.8265341178962902 -2.24051947723381 0.14403078091764718
H 3.197636250115858 0.4561179295633376 0.623752297129546
H 1.5320664402487492 0.23099954456844982 0.10557855155309613
H 1.0301293354574068 0.023064406738331766 -2.189734171014565
H 2.4071686163531014 -0.11285251794439256 -3.4219204835602324
H 4.624659513197145 -0.38761294913453487 -2.7742179637188134
H 5.25396707235255 -0.30703212384283207 0.22948402757644934
H 6.430599647837183 -0.45416042577665944 -1.181055000750467