18

C 2.0461218156144336 -1.1896687954942273 -0.7236763528455353
C 2.608412211320149 0.03806455695344286 -0.013658229680244029
C 3.0537851698610887 1.1336232425931656 -0.9477073430583635
C 1.975385624343233 1.7562798761505252 -1.772181333100412
C 4.340816994651065 1.49473786681719 -0.9877999876997076
C 4.980051703444006 2.532876246478449 -1.8429963414743356
H 1.7650887680268657 -1.9604071043325346 -0.004037303110966609
H 2.7847352226757156 -1.6222095196957378 -1.4097147138838195
H 1.1537030027396111 -0.9494867239397384 -1.30689382296397
H 3.4479753240809696 -0.2625745898170494 0.6153165052012632
H 1.8359854191685443 0.438417815286493 0.6692181088490231
H 1.1377025008329733 2.0676124363744144 -1.1257116004514278
H 1.561215846108726 1.045560307922858 -2.4877235503391626
H 2.3083123706601665 2.635955643023994 -2.318629386801343
H 5.017042870836832 0.9515906626418059 -0.3277739174942484
H 4.2712194804914825 3.0680373873308735 -2.4840037075606647
H 5.747096746545157 2.093244594309668 -2.4858675253285725
H 5.488127696452694 3.278344671048678 -1.219336539353818