18

C 3.028274907281019 -0.5179011038023957 1.200429067252025
C 2.5351551468843323 0.14332059745762404 -0.07453084677377149
C 3.071423923700795 -0.4911779553809317 -1.3574395084576738
C 2.394844385802411 0.12202581051936925 -2.5845981759851706
C 4.563619170460771 -0.32930150195233554 -1.4650439475566959
C 5.441790611305691 -1.3145755908642065 -1.534167452630805
H 2.612410200497368 -0.03205004778817347 2.086207809925155
H 4.1149786664898755 -0.47792783283172724 1.2704003311003589
H 2.7350978273418876 -1.5774284616929117 1.229305229410624
H 2.800471712569572 1.2048020279032792 -0.06726401583894831
H 1.439407644512277 0.10564063134539639 -0.10862884853783081
H 2.8513387786170092 -1.5599354319029959 -1.3383799040943083
H 2.60292145580959 1.1959315234821661 -2.6537208669576215
H 1.3121365701536543 -0.0005336518902872081 -2.5257162622816245
H 2.746356859919139 -0.34924305434938113 -3.5064496221546904
H 4.916390694051119 0.6967965849504164 -1.4843975916788184
H 5.133038762897869 -2.35284543043891 -1.504556408161254
H 6.5063653737597855 -1.1236264068804203 -1.6171115138946828