16

C 0.9722274197783005 0.001611299733990039 0.004114077625830903
C 2.4934899456381014 0.11429905144291481 0.035120811504065305
C 3.001707964263894 0.6498851313019623 1.2962937422884566
C 3.39175837891682 1.0885515081708286 2.3384956440807043
C 3.8946967350728148 1.6386494192361014 3.6009495911591016
C 5.345721881225031 2.123017473020109 3.496927890416827
H 0.6464295473072345 -0.40670319609579 -0.9477163337744796
H 0.505598642422223 0.9766620945775715 0.1465473841569264
H 0.6181224854827525 -0.6608113640329265 0.7972104556349805
H 2.83719360783298 0.7553499666133733 -0.7797186385928607
H 2.9432838356021374 -0.8657225832158116 -0.1363278550373629
H 3.825786368161485 0.8714703269525721 4.378847117108218
H 3.245871320062932 2.4517025363777827 3.9147799033330464
H 6.007402789173475 1.3122155052893958 3.2155411201804918
H 5.672969400283178 2.5219702703711744 4.459429944582238
H 5.433820179838266 2.9158649360136253 2.7543233376929734