12

C 1.0508015272996636 -0.07987273158426562 0.050960701284666045
C 2.5711797005550374 -0.08919533213758067 -0.026581146706788628
C 3.080355298168458 -0.27828492125489684 -1.366168668559181
C 3.4771616944166035 -0.43586067816339746 -2.4973963427582246
C 3.926765768286466 -0.6128127455146496 -3.774391985511209
C 4.334174451233357 -0.7690206355397342 -4.900975986124263
H 0.7201981638227128 0.06634550342706654 1.0876635146067093
H 0.6351040065179165 -1.0239910267342947 -0.30988360944158455
H 0.6305635562296852 0.730083606541643 -0.5561751474726306
H 2.9789722217009165 -0.8835499463945952 0.6193438972511502
H 2.9748424765669412 0.850609647816813 0.3705430961564151
H 4.686940839229299 -0.9072561044787244 -5.893451585738125