15

C 0.3700545272996475 0.826771139471055 -0.2137146409743592
C -0.6957211382575069 -0.17350803403641243 0.1309366234048102
C 0.7307663038684161 -0.6241483512866881 -0.06646763162085345
C 1.5274755537446345 -1.1453078208753498 1.0707012157473814
C 2.853018646802712 -0.5671669741585232 1.4009962340724769
N 1.70894344734106 -0.3909361545528359 2.3020964883202413
H 0.6717435652463425 1.521928287243873 0.5607038096091536
H 0.3835924558019753 1.2527977951868041 -1.2083034235134884
H -1.4273178603942718 -0.42432079378377774 -0.6285027317419584
H -1.069181029807276 -0.1767086569413409 1.140539014289192
H 0.9234066488232558 -1.1439349023909415 -1.0045450903288222
H 1.3963462299978369 -2.2127144716991327 1.2482410705396292
H 3.1692526925446303 0.28563559973270003 0.8102209289611508
H 3.644511594143896 -1.1935237228809936 1.7881869384275122
H 1.3309679097462404 0.5448884115431466 2.212009525554961