15

C -0.4539222840022928 0.8512258095948863 0.13266593205661018
C -0.41301105411043665 -0.5922523508017808 -0.27085190503449025
C 0.8375354867779273 0.10387807939765162 0.15403843357194544
N 1.3715251686500975 -0.24308381417294472 1.4312223823742898
C 2.6170931986524417 -0.9796761194182239 1.4316624551168995
C 2.580384481214408 0.4485672371714697 1.8299626782143588
H -0.8946942411898158 1.0837091606920441 1.0948693691594482
H -0.6047418213976367 1.601287091778747 -0.6304360781979957
H -0.5360279830397541 -0.8405563845079819 -1.3194075293601886
H -0.8254184387123251 -1.314602602118449 0.4285350503889139
H 1.5640719099606797 0.3381921752150631 -0.6230932732017699
H 3.0639622574469714 -1.2108856055431543 0.46372096395962126
H 2.7109614721359976 -1.7512916670312058 2.1774469439772663
H 2.996728183825539 1.1676415060271639 1.1222843978772532
H 2.650818419861866 0.7252053366599723 2.873277662528471