13

C 0.30040196996673774 1.4104240848890783 -0.34745712466205153
C -0.7433549553733575 0.7888459516182046 0.4945340612895804
C -1.3601449480250998 -0.4299451000013385 -0.0974978954433952
C -0.4446331068923787 -1.3740782547996644 -0.25991991457539476
C 0.8904363494268682 -0.9036906297078714 0.2513407806732488
N 0.6806661511235531 0.4790902457544282 0.7054217972128869
H 0.6125267351699198 2.4372118867681247 -0.16556597428800007
H 0.3600124085177699 1.0773513980599925 -1.3826177056462576
H -1.2630499654704774 1.3512913604519128 1.255058526389767
H -2.417022839449293 -0.49638552012629783 -0.3528762068839783
H -0.6036492264816485 -2.3343014908211352 -0.7264684645417967
H 1.6735645104707495 -0.9333245535612494 -0.5044424100153511
H 1.2278269467591048 -1.509154480786148 1.1003888068459897