13

C 0.9870424316540085 -0.9648164239730084 0.003164119884014353
C -0.44682899893630773 -1.3727762930543428 0.21870699318527925
C -1.2760160491174837 -0.3482700201159677 0.003964753361256381
C -0.530687664924527 0.8980857462316084 -0.2889248627136365
N 0.3520222200068937 1.381111091655064 0.7859693066727502
C 0.9105164035294944 0.519540900325656 -0.2483765832016706
H 1.419388525756559 -1.485752796853646 -0.8576273225904952
H 1.6257414148363056 -1.2098697604919757 0.8633445316125159
H -0.7435149455412673 -2.3626291114121694 0.5282123656866915
H -2.3575672026047187 -0.39938386341380133 0.07328364332145657
H -0.9433125576529302 1.6669044721979918 -0.9285406915542662
H 0.1705583819678207 0.8478790302246559 1.6307547815381127
H 1.6489134718265372 0.9930503903302109 -0.8758502138259565