17

C 0.7285059485545456 1.2621868498040294 -0.2101534045545507
C -0.7314364701469661 1.2403665629582854 0.2301058497227535
C -1.416010932996512 -0.03320983379590318 -0.240611826647629
N -0.6852378695177221 -1.1907062755681166 0.2541776119030849
C 0.675985427229644 -1.239303589840439 -0.2589741803361025
C 1.4394675229639944 -0.016076483073211825 0.21804025769460453
H 1.2382016217169056 2.1448844213272666 0.18771480564137052
H 0.7653504336995828 1.3440128359455685 -1.3098942055350988
H -1.2637954710863704 2.1047719798930613 -0.15879921582065615
H -0.7800460492072917 1.2832484222169591 1.3213508145378083
H -1.4649017114346685 -0.014151246095021653 -1.350253271733199
H -2.439981047447178 -0.08015042085341531 0.13487487366422796
H -1.1764511626080048 -2.0462317583888376 0.014005886127961855
H 0.7086027781251908 -1.2775635821003266 -1.3659055961909699
H 1.1531700430761302 -2.149352349045651 0.10696524829263894
H 2.4611633908115333 -0.0319565825974285 -0.18699149063055812
H 1.5168698407244068 -0.04619285564522705 1.3072373378070425