12

C 1.4014498801702526 -0.20141010063541145 0.11690942355543918
C 0.4067196526690631 -1.3315477132076952 0.027235638702343645
C -0.8907992736939293 -1.0756929446046803 -0.04466331696071119
N -1.354930022200056 0.22959722748512104 -0.044409332586390626
C -0.44599874930147876 1.2555458379774354 0.03710802631359782
N 0.816770201406457 1.1290855309482504 0.11449040864106874
H 2.1276986512257685 -0.2624873129897217 -0.703364814883083
H 2.0112953643473204 -0.2995112117501925 1.0328842939071112
H 0.7604849619308185 -2.3540769016596514 0.02350078446743733
H -1.646725813518844 -1.8511031742684154 -0.11932649399260135
H -2.3322071935152975 0.435895761370632 -0.10402776921724594
H -0.8769339946263823 2.253873324257957 0.02783613238750278