10

C -0.6541755097605441 -1.2470772592997446 -0.02422466279326349
C -1.4014070943885764 -0.09732462113063217 -0.021070503764136075
C -0.7030645979554937 1.105329899002782 0.055550352892539984
N 0.6112807975908553 1.1912094065239716 0.1441017234041069
N 1.3310671524623152 0.08214654103508243 0.1494631512801603
C 0.729456634080098 -1.0974728260528681 0.06958747452930442
H -1.0965530176532572 -2.224891217463806 -0.08138982810071636
H -2.487259728218529 -0.11289356590340704 -0.09626908377617403
H -1.222604129619951 2.056616732127582 0.0634398747323889
H 1.3932553239898877 -1.9532834217040327 0.06987567497337661