15

C 0.867443105167303 0.0021207625637382982 0.9170338605340239
C 0.3103815046905203 -1.0713577165141506 -0.027552556535574334
C 0.7203518260986742 -0.04365863529432161 -1.1037411339056755
N 0.3720661264847163 1.0061097215384258 -0.07577652962481858
C -1.0850549115018284 0.7689307844453548 0.03588599135857463
C -1.1848656229600902 -0.7886942222935507 0.07688362282543233
H 1.9594454358628997 0.02726149146259091 0.9630331206971164
H 0.44720796077566644 0.09413012738620466 1.9282627342535763
H 0.6376360092688442 -2.1061031919203606 -0.039063151052134724
H 0.14626225696275716 0.010813156664621404 -2.0305035388194663
H 1.7841158105090602 -0.016628083146689197 -1.306571361361506
H -1.5976300838254986 1.2086922370171764 -0.8193160286677548
H -1.4688772118535578 1.2408271719494497 0.9426090452813951
H -1.7518428613844486 -1.2074904284836718 -0.7546611024487702
H -1.6225959424069984 -1.1627921402070205 1.007672935550427