10

C -0.7498884317223828 1.084423274674706 0.028128734104381995
C 0.6360979925334491 1.1616119368726945 0.033435433205649956
N 1.3955579073609334 0.06819956808046805 0.0331173723736564
C 0.7590776370168814 -1.0927130242445329 0.033340470077660764
C -0.627627541320693 -1.1568581823197857 0.035637097574013184
N -1.3915085140745806 -0.06804990464526664 0.025377344608633855
H -1.3535930963708849 1.990910456538538 0.03128302505362074
H 1.1524574966516392 2.1158023630474005 0.03112665274780815
H 1.3559483760346709 -1.9972431870347707 0.042823124951633144
H -1.1465562816404038 -2.1222464714602705 0.030860584254648864