16

C 0.7275786847349565 1.1965971282683017 -0.2541707386551004
C -0.7139744837561739 1.2009918405210427 0.21032172953744366
N -1.4400036756783245 0.002782189616552215 -0.1678056194530705
C -0.7195659254493257 -1.1954807418187365 0.214205997785393
C 0.7341291835324433 -1.1999134355066914 -0.2540942508046022
N 1.3824629693958361 0.0025955927514532155 0.2283870547382608
H 1.251655152042897 2.074724442693153 0.13245834186515149
H 0.7439637958933932 1.2701505122018353 -1.357085784467001
H -1.2431330714906736 2.077105044721008 -0.1764411927141112
H -0.7328330744878889 1.272683699518505 1.3105181309937493
H -1.589714926204929 -0.002933537981306473 -1.1737270011282752
H -1.2410092414858422 -2.0697624297954347 -0.1814222971053307
H -0.7328120574240191 -1.263957913938586 1.3061047486810196
H 0.7408685984893751 -1.266077135858255 -1.3564505874492654
H 1.2561029503636323 -2.0767081512704983 0.13261222702513548
H 2.3623114525896707 -0.0039027979354299015 -0.018603778265359555