10

C -0.7393501812586112 1.1467199473869734 0.008499410649151048
C 0.6349528450775954 1.1772558825245576 0.027731803486901192
N 1.3763293053160177 0.07250333439927935 0.05163047478995922
C 0.69908088062314 -1.0652523785081818 0.06475803560042577
N -0.621780549093268 -1.2199643112546326 0.05172389889488489
C -1.336535147291417 -0.0981029852139844 0.025624902158851215
H -1.3315351937508983 2.0549270750944855 -0.012266987152956075
H 1.1812914739057416 2.1251168447597872 0.017983307951182557
H 1.289539160171067 -1.9775548660061086 0.0868979000249293
H -2.416221685266237 -0.2177378382179531 0.006839596111929315