14

C 0.385940201782871 1.3453766062894934 0.285817932578671
C 1.4165052050619054 0.3531901606835638 -0.2429930349164179
N 0.9360780810310564 -0.9833054141310614 -0.004408798248293389
C -0.395038422537589 -1.2425097288721845 0.173023564648935
N -1.3592725838372222 -0.4176369169058008 0.08613697510658525
C -1.0045654384238345 0.9541117420379949 -0.2114190004008198
H 0.6510069776207742 2.354317825009354 -0.020100435933209936
H 0.39664421912039727 1.319184139667365 1.3824638274631655
H 2.3740163058564634 0.48862445499977614 0.25869153251186044
H 1.5767596735592697 0.5236481017419441 -1.313987560855175
H 1.5862747266407276 -1.7314705970004334 0.15196733461340453
H -0.6102726461831731 -2.281084938707952 0.4097641749337828
H -1.7523366384891408 1.604311242428473 0.24378480588427826
H -1.072213926364553 1.1251503157388292 -1.2949439238381055