14

C 0.6201020904472231 1.2722215040774199 -0.07373359099136576
N -0.7476697372710251 1.281842854839811 -0.5783000144413348
C -1.4117390671562648 0.09067391862737077 -0.056279802265672904
C -0.3080389441908001 -0.9259998679960586 0.20563490943139076
N 0.663327302136994 -1.1316633119696122 -0.8588200740944685
C 0.9658429975057113 -0.17522173219845263 0.1976387518955046
H 0.6836233975847144 1.833323120086822 0.8734394544973031
H 1.2960393239494494 1.7620967665261926 -0.7817586065445495
H -0.7550843058086515 1.2938412151238132 -1.5804868793583247
H -2.1640784808467033 -0.26425345006983164 -0.7618603085905836
H -1.9231963599316169 0.3112619246223187 0.8853988383851419
H -0.4984836191676451 -1.769132994083304 0.8538137705815877
H 0.37771836058231595 -0.6571367553988943 -1.7039778218950694
H 1.7958104199310705 -0.42414149510406335 0.8459671112470586