13

C 0.974924461489422 0.08333146330215147 0.037444821310072575
C 2.477145853962506 0.03731589146700954 0.07725232007698021
C 3.2419133426459723 -0.7559319566314311 -0.9387725847737344
C 3.256699227978163 0.7571474711561953 -1.0025004356217941
C 4.456366335572977 1.4561700888452371 -0.6573991409835157
N 5.424052156711133 2.0206679934996217 -0.3652747340289452
H 0.5517273753104239 -0.7673339027061579 0.5753677862941825
H 0.6085953506582767 0.05098828592317135 -0.988277864192372
H 0.6055483807556193 1.00385176289498 0.5092789123653312
H 2.9294091217086375 0.08411817593093018 1.0627352755252084
H 2.683370650388332 -1.2619789042360554 -1.716709724193434
H 4.150602945843236 -1.2456038405246337 -0.6266085911928322
H 2.6868171717076454 1.2193920726114815 -1.7903417680216822