17

C 0.9465700762571049 0.0676007451462063 -0.1085746254179773
C 2.458459335530249 0.1056961202209673 -0.014671200529668388
C 3.1553309538551724 1.143587512509601 0.8803200443152369
C 4.213608020480243 0.07923032989746863 1.215597883188427
C 3.207511778258118 -0.9908848634169083 0.7808819930363632
N 3.7149733703008487 -2.1950643856381395 0.18755318125009246
H 0.5489791372927391 0.9597293696926659 -0.6120272640057858
H 0.4974551958848811 0.02914981133147798 0.889508793872566
H 0.6077804260316797 -0.8022804783233634 -0.6675037856426366
H 2.9009313317839123 0.1578276593450982 -1.0212077824383654
H 2.5381660621121083 1.378757458699591 1.7623911782769732
H 3.4888989020114556 2.077040949136157 0.425776738693726
H 4.616670365531759 0.023906017628337627 2.2275306255736678
H 5.052022988158953 0.12392978636490569 0.5021903613904597
H 2.5889213755561635 -1.2756655420072536 1.6440198770667473
H 4.224564100155728 -1.9818709294392503 -0.6714113628773196
H 2.964665168854911 -2.8399122501237173 -0.051099806482367054