17

C 1.0713333206384832 -0.10150696938671472 0.4746749166818101
C 2.3903415631616536 0.10005744201415301 -0.24934482558593424
C 3.2552506865151867 1.246907024948258 0.29517483407894407
C 4.086332093389575 0.16814397474365717 1.0052335070152545
C 5.589624182099544 0.23693038198916114 0.9518839014929399
N 3.465325715866986 -0.8350781261020191 0.11907741017765675
H 0.3600551593785801 0.6845356682983409 0.21451353054849
H 1.2136918615454602 -0.09928603348163112 1.555982393058966
H 0.6209092212239558 -1.0548415296146623 0.19215009904780259
H 2.212860830075184 0.12361929947778785 -1.330444909845807
H 2.746418827752193 1.98504952918774 0.9303222493448933
H 3.825833822198915 1.7575492792346155 -0.47189698696193705
H 3.7656403223833532 0.05772128981046428 2.0594778804929996
H 5.958222568677142 1.0852591008931294 1.5311284827876295
H 6.043099260599071 -0.6663303621493559 1.3442801602976384
H 5.921816478412857 0.3560216461094132 -0.08643839073987265
H 3.156982599022315 -1.6934245409726223 0.5690756607151805