13

C 0.9170098950055814 0.12236607209521426 -0.03441513918671997
C 2.404785900638406 0.09279374720882562 -0.026281245509075322
C 3.245053100400566 1.1694875642527465 -0.03007984239399893
N 4.5353850795342785 0.7161294230747897 -0.02083454154676417
C 4.540305124356183 -0.643908913749716 -0.0237650322856777
C 3.2360879077793845 -1.0680801452289284 -0.026154498204015816
H 0.5404461944217189 1.1432390694369572 -0.03983414318182284
H 0.4920869313942449 -0.38611591523390504 0.8398248880194333
H 0.506772384657237 -0.37934844026438175 -0.917929179666511
H 3.022931612734545 2.2323655843218093 -0.025946310282416316
H 5.3522615672690055 1.3001483148230475 -0.018785312994839393
H 5.465212175631608 -1.199525157511644 -0.01909734513853327
H 2.9108898320614056 -2.092849039231102 -0.03219680908242684