16

C 0.9826609096170178 0.10651008933686391 -0.04730330559375839
C 2.4875888050821358 0.09264570956845589 -0.03621696715269022
C 3.2778600536801976 -0.6891101749188069 -1.0667411302660632
N 2.694562593035912 -1.471717311794985 -2.118699447121998
C 3.275044462334772 0.7956381161398346 -1.1176479123414387
N 4.477682518769402 1.5340256654881415 -0.899259167905401
H 0.5707120777255625 -0.750044038267523 0.49226144917882037
H 0.58863120051496 0.06162082087118681 -1.0659350628265951
H 0.5831575177965886 1.0133014470263226 0.41196414354297034
H 2.9423762053422644 0.1315021929723044 0.9522832045323235
H 4.1977541674976875 -1.128950310922192 -0.6832964800237079
H 2.167448406340623 -0.9020987437395454 -2.7595282309422733
H 2.086780376111549 -2.191834106769325 -1.7579906049330016
H 2.6556115374866662 1.2113587910397434 -1.9193610086944966
H 5.194872488938306 0.958863988822833 -0.47757374483172255
H 4.312906023654857 2.3224346833891327 -0.2851404054512095