17

C 0.8250923562906629 -0.10712965036687783 -0.22643589300789482
C 2.3198330927617015 -0.09987666957096744 -0.03167529650927683
C 2.722374294063534 -0.0745017817254575 1.4310457853211138
N 4.157838139490731 -0.1686781989776682 1.638478669503457
C 3.1628188169138407 -0.8618130091001909 -1.0145897372944104
C 3.163034764345859 0.6340924725256621 -1.0209085457613358
H 0.36979409066479313 -0.9876374377621251 0.23202852979756977
H 0.5706145169230821 -0.11667883380041581 -1.2950193180453617
H 0.3710169051061077 0.7716462986398067 0.21815755726709146
H 2.1514529765795354 -0.8565375025774727 1.9618121554685435
H 2.3892054775796674 0.8841867201621222 1.851535637586858
H 4.459669374235097 -1.1310137508632379 1.5903816847520467
H 4.412938302200853 0.1739001951477789 2.550900063860944
H 2.6500505818636215 -1.3910854010191804 -1.8165274742731512
H 4.062578105520406 -1.3479373732017457 -0.6614332188072662
H 2.659285735506635 1.1449274546865724 -1.8335042863408308
H 4.049675647773915 1.1190904405636593 -0.6489033670471439