12

C 1.1407027984525564 -0.0015934461248519579 0.17042259582101077
C 2.4561845484448015 -0.057542722413731553 -0.04200578418769314
C 3.393416030550013 -1.2455074812901723 -0.09731385116467588
N 4.728865713179308 -0.7208371898490079 -0.35578828794697304
C 4.59254382029545 0.5467709209523792 -0.4347498966926706
N 3.3116209521377473 1.0183215408498847 -0.26202070690816376
H 0.5864559036751077 -0.9224132113671142 0.32399820113050715
H 0.6012600014295234 0.9257649270902756 0.183987585993908
H 3.1122762583640062 -1.9413362858530057 -0.8947321203289877
H 3.3897719349689215 -1.816771139952562 0.8387868427319929
H 5.405875903698901 1.2380786463332565 -0.613222053056247
H 3.037217073506676 1.9791400595611632 -0.2930214064929701