16

C 1.148031358049022 0.5014777466756626 -0.21770229976572245
C 2.3979595867448116 -0.33375686378274344 -0.07588142186278227
C 2.8867033904903927 -0.5220709548449646 1.3375971416204273
N 3.3048665670927395 0.7519578567189551 1.8950865483653296
C 2.6962897440369518 -1.3652140815663285 -1.0803699020980533
N 3.485106057519908 -0.13060618159676698 -1.029190424193347
H 0.3007909424540426 0.013748579826222454 0.2826578282265657
H 0.8870600903837267 0.6332812941225165 -1.2768276630577593
H 1.2941611677170008 1.4765583394469626 0.23759660255794027
H 3.6916292211578536 -1.2769157762197423 1.3165796883102656
H 2.077254302012218 -0.9290678170599334 1.9484228259718506
H 4.099608068940575 1.09541608036802 1.3698821553511595
H 3.5976555609199123 0.6482591688097581 2.8516390752617182
H 1.9898722682148695 -1.4918864134685927 -1.8970966697685265
H 3.233232504133992 -2.2612469524026726 -0.8010719075549619
H 3.188324919093137 0.5068129662457281 -1.761829049265151