10

C 0.9707228266447738 -0.031175033449202402 0.05062042308970624
C 2.298806726114974 -0.028068038885410544 0.05533296162791813
C 3.2344183670074838 1.0967666770334625 0.05111266463145146
N 4.447778778838714 0.6830539222981713 0.050062637082426774
N 4.44699052691236 -0.7394364661355239 0.051450861709037496
C 3.2362541742168647 -1.15310797940391 0.05104031744180535
H 0.40541173776410544 0.8995840528697644 0.05090505609019123
H 0.40198698280115824 -0.9524019884815811 0.052977102045445534
H 2.983485533545372 2.1516831848868034 0.0537660356119634
H 2.98643415978797 -2.2042840926047664 0.05026274703055395