12

C 0.9429706230616606 -0.021799162520880263 0.1646237045469606
C 2.4721116415623166 -0.02371521375861291 0.12243758824719454
C 3.101472979644409 1.0928873400712587 -0.6330885409476052
N 3.881287938310352 0.6889468705886569 -1.5606401429597911
N 3.881849457133298 -0.7484796440744131 -1.5575590365746088
C 3.1089678246728285 -1.1424296714276416 -0.6278479167075802
H 0.5662608492288328 0.8534967427319908 0.6810947178510266
H 0.576000141215256 -0.9124224609131857 0.6921373161324674
H 0.5299376786894779 -0.030144115292220105 -0.846445000558682
H 2.855005632843293 -0.0224542809049305 1.1544585482067928
H 2.94854775886846 2.1435376668066444 -0.4568371294947908
H 2.94898109046044 -2.201625586964122 -0.43855125422244967