17

C 0.9749049177787387 0.07676263511642015 -0.16738805721059644
C 2.4773862492806114 0.13697848423248682 -0.13567360493765968
N 3.282193802746114 -0.5871203684506565 -1.109683196282907
C 3.302260474320873 0.8849206401045085 -1.110670644121987
C 2.6824582359440283 1.6257614912773282 -2.261661293330749
C 4.609322842313977 1.4709875741122298 -0.6370239906050156
H 0.6239290416099896 -0.8697089299378684 0.2547918528943517
H 0.5829807961316954 0.15071381005194345 -1.1815661289354695
H 0.5404467312564547 0.8770503974229632 0.4348307520200004
H 2.887192608629592 0.06812850082090927 0.8730848414715047
H 2.6857658638107 -0.909847744148755 -1.8616977006925386
H 1.747409805206235 1.180931439064978 -2.588649559430839
H 3.3697340395427293 1.623595281081763 -3.1211131360524464
H 2.5001410224455674 2.6673857418043005 -1.9992909618853674
H 5.026738085556568 0.8645794469111548 0.17333616034319393
H 4.466557039938743 2.4982226322911805 -0.2724673618510807
H 5.339658184163569 1.5018397829363899 -1.4446591565123523