15

C 1.0831781374445912 -0.11633995230815414 -0.017726035022438642
C 2.5475357676894617 0.1146132309294092 -0.23435476174813147
N 3.201426024284654 -0.3539932572319898 -1.4553094590130362
C 3.035077505348796 1.0855728332055354 -1.2557995736572827
C 4.2525078372262595 1.8948402528409989 -1.0595262197779993
C 5.492123216369768 1.4269465633872502 -1.1498030902175647
H 0.894491814297865 -1.1457149525969916 0.2794406024943138
H 0.5173713091871811 0.08916681421987924 -0.9273728962950181
H 0.7007452844065359 0.5353576304291465 0.7759970549677413
H 3.1815039921801125 -0.010522825711862801 0.6374250164412002
H 2.5011159963068827 -0.69740127959749 -2.1095770716625086
H 2.243983137220765 1.580136911998793 -1.8199143510671294
H 4.086410305372064 2.9469451769712536 -0.8239890070652867
H 5.669959301590936 0.3813783006853901 -1.3984050495040743
H 6.347355557998792 2.0627251121831867 -0.9771896510022282