13

C 1.0337334442731994 -0.00923141691940483 -0.002062109866835013
C 2.5245035857812907 0.022101000319322668 0.10732202870598782
N 3.363291339322425 -0.7837806029122222 -0.7680353723387341
C 3.3491390207423772 0.677015186349521 -0.9513996339267397
C 4.551346162489853 1.400704268749474 -0.6545385844159277
C 5.542046317926319 2.031509078294962 -0.4098292147385329
H 0.6315547948427473 -0.9010505434647607 0.47563412682453554
H 0.7227176249521168 -0.013569657812751587 -1.0554346285785958
H 0.5797121844884844 0.8595669605261481 0.4767992207126434
H 2.9216632563270784 0.08902462148809992 1.1149487948963703
H 2.788448518678367 -1.217003482658808 -1.4893985373868697
H 2.791035309769267 1.0575274597555628 -1.7993265190021879
H 6.429451233038782 2.5730251911715376 -0.19120378586381198