12

C 1.0283375850928105 0.05272668509721953 -0.17092514396101682
C 2.522457458474082 0.08861499580206157 -0.06153261570328524
N 3.3473673959353762 -0.7211936692583978 -0.9404218426445491
C 3.328169198414945 0.731277494867876 -1.139355287693089
C 4.530240465005791 1.452486240497369 -0.8426650166893187
N 5.483379876057377 2.0541090258305057 -0.5971302737471368
H 0.6247209507064593 -0.8363050280654625 0.32773700804206163
H 0.6994372658499513 0.03832934171739675 -1.2191309624324937
H 0.5834389699802065 0.931924731797361 0.3043688856584791
H 2.9158896213888483 0.15704620703851815 0.940044896518443
H 2.7872771889848917 -1.162676453519538 -1.6626542588503816
H 2.78101675143159 1.131439964518026 -1.9920407398917965