14

C 1.0511437295325978 0.047921221762444684 -0.021254827376638905
C 2.535400921434684 -0.01692906641067218 -0.12350221572756524
N 3.212218534989646 -1.098172146494727 -0.10665492674019252
C 4.62072710314119 -0.7251470544867891 -0.23707166472601532
C 4.670611047066975 0.8286346658933341 -0.3231177195878209
N 3.262134682457807 1.146126418268118 -0.23596246972626694
H 0.6569866737768894 -0.9579268662475108 0.06647064842394601
H 0.6198204861567552 0.5279384779319853 -0.9013808465972971
H 0.7504894812186199 0.6252419267217899 0.8633527780799144
H 5.055120215976683 -1.1915151387246752 -1.1184800804891017
H 5.178352661220353 -1.098557007016898 0.6247423958473409
H 5.106688495997425 1.1763243897323379 -1.2637211407328404
H 5.238367610333952 1.2777562866575718 0.49925257720297356
H 2.8739673886940396 2.066775896253087 -0.2634911972318315