12

C 1.0763505681553758 0.04991005617104905 0.03666397753267296
C 2.557751394114127 0.07310764339687825 0.02740560129608295
N 3.306963130784877 1.1414505285615655 0.025617567774766946
C 4.599684581930386 0.6978200204369275 0.023931039624336018
C 4.631758936745396 -0.666471172249944 0.02713025864070887
N 3.320318847687231 -1.05775026062244 0.031353064241384954
H 0.718238367257154 1.0836199580036479 0.03836579401301835
H 0.6713258611360999 -0.4534633294717038 0.9194464940365301
H 0.6704970762458081 -0.4528070170673506 -0.8483732188187507
H 5.444226958778094 1.3814999823840446 0.02109252279330249
H 5.444213274861929 -1.3837289212997828 0.027205246697035255
H 2.9847288973933166 -1.9977984384358107 0.03554659599139538