15

C 1.9418686969385808 -0.11207780575706401 -0.9502289921204908
C 2.3454073874281165 -0.16186237147901797 0.3099604063765475
C 3.0649771776373416 0.91885625447018 1.0389696310043632
C 3.05782447563064 2.360616091367243 0.5079636537370633
C 2.6448711330626384 2.7726430210427866 1.9297095229873251
N 2.4246915282084656 1.3566088738094284 2.316653506508735
H 1.4464108978313879 -0.9533057626101025 -1.4154376349768572
H 2.109587304306693 0.767719788050098 -1.5699884302259495
H 2.1746232434441533 -1.0649321367869737 0.8935183314118337
H 4.082544449617231 0.5685045449949758 1.2618959183224314
H 2.2657812253909104 2.5397730583832945 -0.2209477425919022
H 4.002572861670705 2.747591518898253 0.1268579288557867
H 1.7694981356817783 3.4127100113610034 2.018235749249737
H 3.46012522342564 3.208638492094619 2.516034240474112
H 1.432504462091027 1.1403010918683347 2.2877613514655133