17

C 0.9825460688032617 0.7437540953167896 0.5601796284238324
C 2.2994100985390094 0.11895414606452816 0.14346814999150964
C 2.9622549339031363 0.6515546156299594 -1.106675810236812
N 4.206831689151146 0.029792536070929757 -1.4596370189592969
C 2.139032215332505 1.0871374512949306 -2.284970331654559
C 2.881826880136586 2.1063233980119467 -1.4564888798736584
H 0.6035010146747803 0.2775173722771697 1.4781624822930775
H 0.20837379972312814 0.6210205022212014 -0.2029787392516452
H 1.0741126875292275 1.8142082020635817 0.764062923784329
H 2.152539790524209 -0.9634108541604329 0.00926084859248148
H 3.0176349591249076 0.21903194280318597 0.9716572352825122
H 4.085421246897937 -0.9586578527228643 -1.6035315563428805
H 4.886509720735003 0.13696618994458615 -0.7149029278339573
H 1.064444411300024 1.0706665193031146 -2.205456650028792
H 2.5408462600243182 0.8587423642246557 -3.2659671003691053
H 2.303121128468587 2.7657032066641754 -0.8281556679866894
H 3.767552612334586 2.5530523785017825 -1.8892113425285546