17

C 1.0736016668204427 0.35464153134840176 0.3433590265926
C 2.5526889494388065 0.5485472971352572 0.0335892014393699
C 3.26698490928868 -0.7725638484243293 -0.2296844042372451
C 4.721325676923191 -0.5927156077087129 -0.5643776347455994
C 5.7372709746033115 -0.647840508202063 0.5019165174728472
N 5.63923705476017 -1.71975774195072 -0.4755528897564356
H 0.5812183069809211 1.3111463829129704 0.527077950023961
H 0.9266949724647113 -0.261032187429229 1.230262435384573
H 0.5570449399668658 -0.12120596411000537 -0.4897174238909181
H 3.04506513320136 1.0598580640639979 0.8687858850856335
H 2.6657726699936743 1.197753713221242 -0.8371610980308806
H 2.772974926012568 -1.2957831144682481 -1.0633199589530697
H 3.1739345077762087 -1.422030628446878 0.6451810750356313
H 4.917784877527404 0.049278396537612394 -1.4167226199613676
H 5.400964377772565 -0.8339699216287184 1.5145624017332413
H 6.641330037969772 -0.04219013340719796 0.42823509354583417
H 5.165128065542167 -2.5191491472220293 -0.06284422172144025