15

C 1.3393425110282422 -0.5970216514229997 0.8397964127926645
C 2.2513430396926855 0.260660038120309 0.41858952075605566
C 3.1581445098273275 0.06087130801532707 -0.759956540325601
C 4.618387557194919 0.13533465679090736 -0.3832178363421541
C 5.351610366598978 -1.0824854265159611 -0.00967314826397157
N 5.62492509301008 -0.39856080084566314 -1.284202419569919
H 0.7185112452702944 -0.3933449681371351 1.6973280075662684
H 1.1815574654850864 -1.5468861127318885 0.33109204850823826
H 2.3790970246445067 1.203348443651919 0.9487425140701592
H 2.9503585773312695 0.8230126652071037 -1.5210834565129387
H 2.947749369287648 -0.9158121883924742 -1.221934305313919
H 4.9162755460807706 1.0732514800300978 0.08375635179544495
H 4.804589985596274 -2.0133421715940516 -0.034946249517722766
H 6.156088087117344 -1.0384022017515293 0.7090451412709216
H 5.183064164238732 -0.8958196522458696 -2.051169234059062