15

C 0.8688576502232195 -0.031313909085470264 0.12548714770098288
C 2.3595412284231836 -0.07817981171922635 0.21298609913968833
C 3.113704537976111 -1.0884684855820133 -0.1982727110402934
C 4.579993588851866 -1.1652122481471472 -0.10549484719902424
C 5.337416410925623 -0.4532074981317586 0.9385640052972107
N 5.213966293095778 -1.908093782178374 0.9999190064580304
H 0.4196134175902732 0.08823311520429325 1.1197348535183396
H 0.46411908653981315 -0.9464414052488656 -0.3268008606808127
H 0.5366781888319064 0.8206053518964976 -0.4780824832031834
H 2.8470420059546258 0.7972162261209035 0.6395126575710636
H 2.6304780349325534 -1.955527482420085 -0.658099033952035
H 5.087795473935668 -1.3451468757621055 -1.0551418786427007
H 4.780598583579677 0.1364779210374361 1.6596583005544394
H 6.334711789559531 -0.09599869413439077 0.7360750469433824
H 4.495567062376502 -2.156488962920119 1.6759494256536662