13

C 1.028657375757686 0.08392450651875044 -0.055451980354682844
C 2.4777093726057795 0.049665596834751934 -0.05998170601495048
C 3.6840032672621894 0.018210914018383477 -0.06988248815813115
C 5.113713558304405 0.00608670673461266 -0.05942785620564376
C 5.858240973009446 -0.6871531012028996 -1.150719691255717
N 5.855795042618964 0.7669747171051357 -1.0700665419121163
H 0.6295509884465019 -0.03929991982592328 -1.0678935472404538
H 0.6607824867583967 1.0267620387491023 0.3461539868852875
H 0.6183154559515049 -0.7298802575821756 0.561574503109401
H 5.571178477627372 0.04279393074007899 0.91893532293101
H 5.264552195403136 -1.1745439337160453 -1.9094748184170496
H 6.805719127205836 -1.1644160567397457 -0.9223956642446094
H 5.20466462891804 1.1421895947324023 -1.7404140688890892