9

C 0.9919139644807946 -0.055709926798352086 0.0342677474405094
C 2.333069274293436 -0.09399507262170986 0.019865098500109132
C 3.07968130917324 -1.0890227664393295 -0.6783775028453503
C 3.730164062782784 -1.912115667967955 -1.2583056278700646
C 3.0871615783695785 0.9064716211012962 0.716243073423553
N 3.6840139889687085 1.7180865203386595 1.2755299817135812
H 0.4200854296720314 -0.8104128442318463 -0.48787459170793057
H 0.4711739146430255 0.7204225153712491 0.5802588796175301
H 4.297241585245654 -2.648775731222604 -1.7644266734190406