9

C 0.8988766331562151 -0.029554281207285312 0.050198730452366974
C 2.100250162157028 -0.0802223109827455 0.06562312592971827
C 3.508363706290304 -0.08915559405632106 0.07788484749901085
C 4.237835902571932 -1.1256413221291905 0.5135566449974057
C 5.663093244024613 -1.1045522428209544 0.5077577921692834
N 6.815333716051675 -1.1127969642373463 0.5108131745018718
H -0.16022598648726574 -0.0025098510402082773 0.032689100657606725
H 4.018607425517714 0.7952413484493281 -0.30437724083550505
H 3.771067922364005 -2.020688154755989 0.897942579124756