11

C 1.0199022717371977 0.08576387098981744 -0.048372520767423564
C 2.2129331160837236 0.06965843537084225 -0.06968441202530612
C 3.6621984296996115 0.06962080924849862 -0.06597703543210341
C 4.2263415068115915 0.738375377945636 1.2032942093833658
C 5.681376871671929 0.7370313069354226 1.2105799818440213
N 6.834262143016265 0.7282970978512819 1.196377213422203
H -0.05106453079557684 0.08541223875275371 -0.03619340792615396
H 4.041500189231837 0.5961644964160129 -0.9551639096200998
H 4.035637391115137 -0.9592863265731986 -0.13663192110451988
H 3.871821858936224 0.20808646419553803 2.089318727292705
H 3.8763076683239914 1.7687001181503963 1.2695883687326963