17

C 0.7052532892596508 0.1492059939194617 -1.4391729326275915
C 2.1880031683531507 0.25398346467739535 -1.4186510631205151
C 3.036007507197491 -0.7675769194428012 -1.4164441831624646
C 4.52389487252712 -0.6564167646177111 -1.398037651974561
C 5.173888141973476 -1.282329845867827 -2.627204232229278
N 6.621956577732869 -1.243137188146934 -2.5057251640503133
H 0.2730309897063341 0.6503654145597462 -2.3141084569545995
H 0.25869948272189675 0.6237653195136197 -0.5563659557827653
H 0.38080567420767314 -0.8996814984266596 -1.4583409966770045
H 2.592256882092889 1.2724946633348508 -1.3999584698997258
H 2.6244155572940406 -1.7723318967798847 -1.4358971658937494
H 4.928187070576152 -1.1627873090412897 -0.5155184812805935
H 4.807861587384366 0.3970995185590657 -1.3200620223494683
H 4.784111761936234 -0.7775926542841943 -3.5232636395656023
H 4.864635068954182 -2.330253027796645 -2.701902030312599
H 6.952636044176507 -0.28677405665959527 -2.486243807076616
H 7.062090536157409 -1.6819877930895544 -3.3019678359522584