13

C 1.0074105503211641 0.13514283951342562 -0.1247120995364631
C 2.489187939820331 0.08578717673909057 0.03102309351163881
C 3.129010515717275 -0.3019276317052733 1.1387989933568243
C 2.482066487031843 -0.7354961956537998 2.41664304531184
C 4.562167570543965 -0.2985933920098813 1.1320342392929206
N 5.715140814500118 -0.3045949100142708 1.1590864294038465
H 0.7311130931584957 0.4827878897164276 -1.1193332029390992
H 0.5431039083336876 0.8158899618186973 0.5954894553078388
H 0.5434133645106722 -0.8439993109146985 0.023618670103880093
H 3.0884791586374196 0.37409456015294423 -0.8216236159414684
H 1.4040536822419332 -0.7171290662158614 2.3375422406480144
H 2.795148670515624 -0.09385573860562091 3.2525396925029173
H 2.7926809644025057 -1.760980483514108 2.675625955640043