17

C 0.8325240761037341 -0.2357433484902226 0.4439646997667631
C 2.3173475266427594 -0.3027652389885632 0.6109346771800943
C 3.126231810411724 0.7414446877651935 0.6031306994700363
C 4.61475775466351 0.6826590777787325 0.7567448137198184
C 5.310424826520924 1.1529885752986249 -0.516585254744465
N 5.006513398505629 1.448198871801714 1.9426638372767073
H 0.5086804509509637 -0.8319065679583243 -0.42558895864313817
H 0.4864288787413404 0.7878062901486375 0.3065486729547845
H 0.3236393251720085 -0.6614130406755621 1.3128446011436292
H 2.7487417928369267 -1.2923988531277268 0.7650817658088044
H 2.7123801366912432 1.7468213052820216 0.4522917879525871
H 4.88961553268928 -0.356755362153579 0.9435347758841262
H 5.025458174892496 2.1833670884276875 -0.7558159676920558
H 5.040971491307288 0.5309320518925167 -1.3775514015177837
H 6.394458724430922 1.1225625268455681 -0.40903137146476715
H 4.66440554629392 2.402052682018175 1.8779437004199184
H 6.0191507791124135 1.506643325598953 2.003937212321783