13

C 0.8923983496813411 -0.01621743873572576 -0.14872095279175682
C 2.3735495850458808 -0.1167810551196352 -0.20590605933448786
C 3.1535647240844606 -0.5202541337643763 0.7911504991441519
C 4.641282042459408 -0.6339849265529474 0.7051770255282155
C 5.325951570142784 0.16134445388122193 1.7180237852453677
N 5.85144304023181 0.777580318564849 2.5367409135592696
H 0.5612547722969576 1.0144273234917596 -0.33700858005171597
H 0.5028879308786881 -0.324804640867097 0.8246053365038916
H 0.4338689528832355 -0.644904763621593 -0.9210239807202226
H 2.8495869567017644 0.1829176615993898 -1.142053006417173
H 2.711512668266828 -0.8109342263475311 1.7476721698442572
H 4.991894445088831 -0.2949712384058532 -0.28434094578875
H 4.963823513975461 -1.6743814344558852 0.8266211395687822