13

C 1.0006606707262569 -0.10950292030528164 0.19810723448732415
C 2.4539161768703432 -0.13455030104415586 -0.11851747422573884
C 2.9766383101533127 -0.8105247630476986 -1.1466140747039155
C 3.3497962918571296 0.6718699688782267 0.7875085899097057
C 3.262100546675674 0.2673347281737467 2.177298515859335
N 3.178878699824939 -0.05761723773402815 3.2828457002397284
H 0.4331922957660333 -0.716586727665169 -0.5145916277125571
H 0.614407110398126 0.9082189118815583 0.1576207971894636
H 0.8152604838279448 -0.48863279751293043 1.2046527177489204
H 2.3471750798698925 -1.3815688868093936 -1.8160091218989292
H 4.042321897992309 -0.808423842624602 -1.3455273968962016
H 3.0682027994150585 1.7402071475354672 0.728744301275407
H 4.391161565403364 0.602641718818347 0.4701275598854987