13

C 0.933304817695327 -0.13671579018627428 -0.09697369339597194
C 2.4352120472630556 -0.0950334129016222 -0.03734328695498433
C 3.095527653432962 0.6648816859787637 1.0742747181505135
C 3.1599200048331504 -0.7361392946449525 -0.9683153696959675
C 4.574795283470364 -0.7337436965616603 -0.9584475393333882
N 5.727444002349514 -0.7341927703077786 -0.957979804745696
H 0.48176062787125573 0.4254014038786035 0.7206781624316528
H 0.5667603338083089 -1.1608798171073431 -0.04139432453338432
H 0.5751296774940243 0.28108767996823025 -1.0387566939300144
H 2.363696728521157 1.1288918003689992 1.7433154939877584
H 3.7465291918184604 1.452528160415941 0.677203333052624
H 3.742457196001277 0.018133853744903672 1.6639924489225981
H 2.6829126483930468 -1.2859365973816872 -1.7608725533996659