19

C 1.0783372444976627 -0.08860605928313299 0.009426846410464245
C 2.5985443265225627 -0.03731753741881558 0.0664625424817113
C 3.0702691342055006 1.4089180653399367 -0.05389385938838294
C 3.0841053592550938 -0.6286597819855583 1.3865562886721143
C 3.1382735084395446 -0.8674663261563929 -1.0988278632629402
N 4.590899162980908 -0.8679798701529235 -1.1694873501305474
H 0.6373989035472316 0.4784895303511426 0.8436714039857383
H 0.7098047030313563 -1.1113259052724735 0.07958945938067213
H 0.6972220243410122 0.3480877980409823 -0.9231215480545791
H 2.642468793695745 2.022424560713444 0.7365815847799794
H 2.7711145305128997 1.836034919129906 -1.0160044135083008
H 4.153654076120177 1.4852386906109012 0.02653673506422588
H 2.7448661897818183 -0.018247508129196215 2.234565128986317
H 4.178450242090331 -0.6815285645479788 1.406662052207277
H 2.69738187699129 -1.6424100770013017 1.536523616119384
H 2.6664909604724274 -0.5087118857568359 -2.0279181550961765
H 2.8100723033706783 -1.9067870502468653 -0.9624230444261003
H 4.935905793320654 -0.00496385880639231 -1.5727062804022942
H 4.92701170810731 -1.618594785703856 -1.7701922511437265