15

C 0.9426196918388576 -0.03436715271592719 -0.0852293882730868
C 2.4743654180196692 -0.056078042871345934 -0.08239708612789033
C 2.9902018728525146 -0.5574251118792094 1.262371978021209
C 2.994479505597635 -0.9350798664997768 -1.2178338418038643
C 2.966098989077833 1.3088015524071615 -0.290525314490756
N 3.3470802206817782 2.3863502776243943 -0.4486371371515937
H 0.5608215762621191 -1.0437260984453396 0.06785603829862116
H 0.5501131957148616 0.33857480891827785 -1.0402842461695712
H 0.5552137498611888 0.5990106926065439 0.7112407522653507
H 2.6346915115469147 -1.583093076850989 1.430970787595552
H 2.6381926975965753 0.06849511752072732 2.087090108224185
H 4.0828938348973915 -0.5691468686183071 1.2857030981095021
H 2.6311926840398767 -1.9599279914390961 -1.0786860605729112
H 4.0807719488575085 -0.9568644418516781 -1.236298723732143
H 2.6398553186358082 -0.5844899370245151 -2.1857302040016955