11

C 1.0368105369061502 0.07284736402790915 0.023456015703781037
C 2.567156351960107 0.07745467176224036 -0.055446977790045635
C 3.0693732229616697 -0.940970691795128 -0.9796644091359121
C 3.461151681073137 -1.7907107442881138 -1.724435030495239
C 3.0647310422615983 1.4021116871039634 -0.42413402270032574
N 3.4173158528391077 2.455951766591634 -0.6974683849199289
H 0.6949537753567167 -0.9134318913383757 0.3438010035885468
H 0.599917940259945 0.29218715857138566 -0.9542849776704403
H 0.6904449222760488 0.8203260167445735 0.733049772258167
H 2.9671906545947486 -0.14225827320527412 0.9351809283483892
H 3.82280152381201 -2.5465860894914094 -2.391469978265906