17

C 2.3478880120917567 -1.2592954128347187 0.8086854897439447
C 3.1090090562637442 -0.29496927578435567 -0.10398097258529705
C 3.202388606765351 1.0787318957339267 0.4707415937355539
C 4.339190956745575 1.7248471394625824 0.7293714288258654
C 4.410911551056535 3.10480546018248 1.302743149988703
N 5.2227162609656075 3.106340714308263 2.5185808355853356
H 2.2587613066987844 -2.2478298768551 0.346858036521735
H 1.336060160423676 -0.889462348722916 1.0086224654909917
H 2.860936358567926 -1.3724344396672976 1.7645063838175443
H 2.5973782255583413 -0.24640996413188315 -1.069924771023067
H 4.113035113629349 -0.6792079939921191 -0.29900151896122673
H 2.2634602513867748 1.5724137060576464 0.6913422728463525
H 5.292625121358451 1.2499448071016976 0.5389245760954195
H 3.386553906978495 3.4904718127173933 1.4478382804390544
H 4.90791637585603 3.766123489169473 0.5814723469904133
H 4.775350875387183 2.5543153013613833 3.2409681329495585
H 5.334879942046075 4.0461902540804155 2.874066022302419