19

C 3.6569937622978426 -0.6047240826027194 -0.9729355055974607
C 2.8813221961480777 0.08992292375408546 0.1432401988734261
C 3.1828109458956986 -0.3927382164776335 1.56409297487429
C 2.411692466937446 0.48273416568098826 2.548314490671928
C 2.7704258502749597 -1.8524256457191957 1.757276233171227
N 4.612114249432744 -0.176573701797209 1.834490679302895
H 3.3641763009064625 -0.20215014934289463 -1.944309146522363
H 3.4575436823875916 -1.6815189722417667 -1.0001628298293124
H 4.732277491771155 -0.45989083828966626 -0.8706102718886392
H 1.805414890734165 -0.03039497980935536 -0.03660532265265624
H 3.1016199264603226 1.1601616946429478 0.10408687500023833
H 1.3385529899295376 0.40205362937049344 2.37237961850959
H 2.7016359187821983 1.5298570215838017 2.442165267904969
H 2.6090817441989245 0.17379963396054926 3.578595936666258
H 1.7139592507931833 -2.002328254849552 1.5345390712919158
H 2.9499516691437293 -2.160699728243482 2.791726918422306
H 3.3437774476478213 -2.5218233113783977 1.1129710374324104
H 4.8169764664778 -0.3829110649730131 2.799174968916074
H 5.1757346963678295 -0.8208623948752231 1.277312871688225