15

C 2.793428607510593 0.7602411812500092 1.1279785776193108
C 2.399760217249011 0.00680819264314773 -0.12493905007939383
C 2.9399521293212483 -1.4222865687651653 -0.1851734360082044
C 2.447272536213458 -2.177301590466251 -1.4231315315012805
C 4.40852008138986 -1.4212793066766645 -0.15518832836597762
N 5.554291912342505 -1.4034532252610108 -0.14293234238999925
H 2.3766248330208617 1.7691256482320747 1.1214870651582634
H 3.8843819510498006 0.8545619240482683 1.2103744850094633
H 2.4347612308000732 0.2540390974257661 2.0253519672558027
H 2.7351000175063067 0.5538038964812093 -1.0187125335555927
H 1.3121084608575948 -0.05332724988541954 -0.1957222989846919
H 2.614179406628002 -1.9504217670253496 0.711582698969446
H 2.763161693078497 -1.6756466947959152 -2.3362777212807124
H 1.350905723384274 -2.2209572208690123 -1.4080371439122716
H 2.82556415443809 -3.199150958019776 -1.4446844601744846