19

C 1.0557089830986612 -0.7837073157089514 -0.24102717590720574
C 2.0555531640758584 0.3313488696738684 -0.4967323713877927
C 2.9301588550040654 0.09393928186099908 -1.7333598787925308
C 4.0624005701350985 1.1101858635322126 -1.7990351989447548
N 2.0843870086934966 0.053643140176968175 -2.9150211429249646
C 2.727008343831013 -0.45685225843457816 -4.107642678855745
H 0.41775178280169195 -0.5452606993070032 0.6146006963422277
H 1.5614520186195822 -1.7299358248611902 -0.019676021808096775
H 0.4200445153330701 -0.9404604209762694 -1.1136894590427506
H 2.709169198963265 0.4593007545972547 0.3715537722156696
H 1.537267908312859 1.2812839349828729 -0.6234157813171776
H 3.378055496572502 -0.9053220005491046 -1.6410065545463437
H 3.645558760484871 2.1295767043098115 -1.8366754535372578
H 4.707089941804968 1.0504699953234513 -0.9174613809949376
H 4.688139320400637 0.9656850535017922 -2.6808826696175605
H 1.7063929079115736 0.965815531803592 -3.0888682012355457
H 3.022986115647863 -1.4960071939171997 -3.9488537599343276
H 3.6190177393352974 0.10122184401364401 -4.444486933780273
H 2.0087888147891357 -0.4508303971654544 -4.93083299504853