14

C 0.9170240222461116 -0.1416536778334008 -0.03489488468108078
C 2.405915123769963 -0.161645907274709 -0.04122563885577184
C 3.191734151348614 0.8126220768065064 -0.5143071738241589
C 4.629872688273354 0.7725609262700411 -0.5131168782966988
N 5.310746739124895 1.7360509540085303 -0.9847297122787504
N 6.635002517649163 1.6671048067407654 -0.9667168020981965
H 0.5205393817485497 -0.22675270653666926 0.9759070836277436
H 0.507635061064876 -0.9824121808071975 -0.5998321566869332
H 0.5348077703914569 0.7837280888153859 -0.4813176552102232
H 2.8795647285276207 -1.05255220277994 0.3794801974364543
H 2.744669251038718 1.7059672842697586 -0.9482533265970462
H 5.114153730142546 -0.1172802339588243 -0.08644037850858219
H 7.138639562237334 2.4442520979033575 -1.3419737173894526
H 7.133372508900575 0.8741770880947799 -0.5874832518366074