14

C 1.12778263105584 -0.07202117758416737 0.007964775291883015
C 2.607803521850068 0.0899236085964983 -0.1435553882020703
C 3.180065491197945 0.2682570701857993 -1.3373299550654556
C 3.3690179876340185 0.0345576183440263 1.1047536231574946
N 4.639995437536673 0.15248310114247388 1.1438402962381229
N 5.262755692424915 0.09538511683938092 2.3161488854911183
H 0.6110640144951212 -0.01737016814209638 -0.9507330164651807
H 0.7085429778279695 0.7092982318369132 0.6547017632948917
H 0.8786043237879719 -1.024624185470682 0.477436273185194
H 2.5775569459020926 0.30112918189920396 -2.2435534291962833
H 4.248015350978529 0.37688333456871365 -1.437294066882125
H 2.7953794767369358 -0.11151325441427415 2.0283295664157803
H 6.252446392379373 0.19525402283586932 2.301997841087115
H 4.763060276304496 -0.040936176847169325 3.1796436288304664