16

C 1.0213485716672643 -0.048753544446948245 0.07542879000849345
C 2.544343803717486 -0.16184604374834488 0.030746928254366982
C 3.185272416926565 0.529722955362407 1.232977422084291
C 2.968630058877483 -1.6133616453753727 -0.04470282657948601
N 3.6580648771403363 -1.9547659586065154 -1.165385147466822
N 2.7363405632598776 -2.509335281474884 0.8362291241238515
H 0.7126708851507765 1.0000290845105009 0.0892776455055544
H 0.6211748797489001 -0.5253269459612974 0.9760457460268009
H 0.5655744108673019 -0.5242145775011997 -0.7958417044356297
H 2.8965683497564365 0.35014867447393405 -0.8731363805241176
H 2.856073716850766 0.06832499027148539 2.168105184833738
H 2.907093714929929 1.5848078494160687 1.2621409599248476
H 4.270063838279245 0.4629471738622838 1.198395177921809
H 3.8695539915027513 -1.2765010349389574 -1.8770652353681376
H 3.97854149992149 -2.90062857174681 -1.2754189012858304
H 2.214333290875183 -2.117016678582291 1.6093581292650996