16

C 2.0114576655714207 -0.19145246202851535 1.448265388597436
C 2.5402232341988964 0.029743400905249837 0.03157300413344743
C 3.0115909998136003 -1.2330365527896334 -0.6255752008760657
C 2.0182015743902375 -2.3045756017179526 -0.9547985549450456
N 4.2593451429239355 -1.3370648946327799 -0.8700435774654064
N 4.700279803856496 -2.4628520006415817 -1.5177298871348086
H 1.6503906489529994 0.741193626955741 1.8773242010131543
H 2.8012110002222013 -0.5918216230727398 2.09514566985124
H 1.1797472000667653 -0.9026577742937215 1.464034318430033
H 3.3779844610178635 0.730657481084248 0.04862578099559071
H 1.750562776417521 0.4746686581572763 -0.5757843932490452
H 1.0038950605768506 -1.9734141096497784 -0.7581467494646524
H 2.1934275244487615 -3.2183187852859017 -0.378154006329264
H 2.095422608283981 -2.569134932965512 -2.014120914058213
H 5.691598657007106 -2.569163712896378 -1.372506306036557
H 4.201925057516706 -3.323207799554468 -1.273916389177093