17

C 0.9988593010116863 -0.05496405373576783 -0.0441564390624387
C 2.5215418970953762 0.0386150066715574 -0.04709111271190792
C 3.132641031805221 -1.1790765504555831 0.6403838627234822
N 2.9469615702444867 0.32804040393919937 -1.4170223876939843
C 4.328262305636398 0.1990030523830922 -1.799439895211106
C 3.3180067689794313 -0.7509222198514907 -2.3099377294912693
H 0.6128433377877667 -0.17631939858025894 0.9679641401426433
H 0.6702351349619724 -0.9155736878646019 -0.6359233724773732
H 0.5663383386041105 0.8400303080825442 -0.48951747224249176
H 2.8105274319798634 0.9253422641884261 0.5243792315271064
H 2.789633833831897 -2.1151368431029 0.18974625609561477
H 2.833767127502759 -1.1851381932094383 1.68394677198796
H 4.2263335592335505 -1.1678971160483114 0.61656618028547
H 5.046785483666234 -0.19362555330408016 -1.0773765034440375
H 4.715919269612058 0.9907921316293052 -2.430739733891094
H 3.3619751797502975 -1.7616384087964045 -1.9296688561365665
H 2.9441429775490513 -0.6636131328050101 -3.331068103909475