19

C 0.9057301529440677 0.05095612980669536 0.00018191407552826683
C 2.4232774335419953 -0.08126926380986361 -0.0021223330640808475
C 2.9628925942803255 -1.0477366440171616 1.0536265006545833
N 2.4673567103571146 -2.4141214790528402 0.9434870863389497
C 4.489545386032356 -1.0694755097049369 1.043179534130332
C 5.106755749891609 -1.8109860576140366 2.204734806395238
H 0.5728599796011037 0.7832832529054148 -0.7331980698406448
H 0.5411894612835358 0.3805340469255392 0.9790662581643218
H 0.4135784090934217 -0.8952851079148657 -0.23649485304587126
H 2.878086082870204 0.9019824087354098 0.15483458372526862
H 2.7625158620092525 -0.42271428412438067 -0.9832832611076915
H 2.6442791423524605 -0.6867491408629552 2.037974889296497
H 2.6653054108848266 -2.781506103983439 0.02416194443272065
H 1.4636116421546526 -2.451768433773997 1.0719853370715229
H 4.8582534377082425 -0.0302176338036841 1.0281280071456007
H 4.8236349967502745 -1.5179343258882747 0.0938005823357509
H 4.862974682050794 -1.3297785870731993 3.162396900422128
H 6.20209744207294 -1.8408997482933571 2.1276933188105094
H 4.733072815367784 -2.8354717189846013 2.252955758280387