14

C 1.3226121134178317 -0.1505973405453008 1.2255693443121751
C 2.106860841576221 -0.1853977481092415 0.16350462325093582
C 3.326616154888433 0.6727567215204132 -0.005091223209115543
N 4.514522320675744 -0.11180231449056158 -0.2140308990259287
C 5.4577051688404055 0.1553713682470677 -1.1600244541692755
N 6.590216185835439 -0.3817608086939946 -1.3479428824375828
H 0.44960913891758897 -0.7879810803469864 1.3036936088911217
H 1.5098589385543182 0.5238619744501449 2.0471634379209513
H 1.907116720205555 -0.8754968363243547 -0.6533947146720958
H 3.4277085066546773 1.3428883839677435 0.8565411064077699
H 3.2072995544219314 1.3164985791845767 -0.8824481883734181
H 4.747389106294864 -0.7899328073044082 0.49566204460225444
H 5.141860968880954 0.9510575685344916 -1.8478075491006312
H 6.787866328530996 -1.09643205837551 -0.6518691060994364