14

C 0.607224620361805 0.24686684154290672 0.4484311150619161
C 2.0449963053976696 0.2947559992138244 0.03690927287692038
C 2.866252066491512 1.280680249083531 0.39906799776943563
N 2.4165890953759823 -0.7843248410199177 -0.7667700582272494
C 3.6519508602430224 -1.3860537826232049 -0.9242651708920164
N 4.755795820353688 -1.1503434182714394 -0.3607144872980638
H 0.3403146834295585 1.137023091611545 1.0173928247089006
H 0.41017179970066475 -0.6309355818023862 1.0718513912798935
H -0.04841169120933793 0.18999062467263172 -0.4267669548584132
H 2.488307232346478 2.064367608764495 1.0376337056650995
H 3.890190602195465 1.3679800774758921 0.05456100353224441
H 1.654492411179039 -1.2799085809493158 -1.2062356584540601
H 3.606513168315582 -2.185376878724725 -1.6580459504324603
H 4.675838907224323 -0.40386884820241037 0.32747888012160614