12

C 0.9864439138574439 -0.20162744359029866 0.005861735725629742
C 2.4772462560304818 -0.053814783398782935 -0.009179971179053009
C 3.1453026832708377 1.1027809244048052 -0.1745049247448541
N 2.614978487664418 2.332680474021329 -0.34423759670600296
C 3.2473802382061305 -1.2378021305025513 0.1504779432733071
N 3.8380395662522595 -2.21986565268881 0.2829782611342913
H 0.47708068291572225 0.7532458386565642 -0.1259583257692563
H 0.6425104396301241 -0.6250882537387676 0.9563152143410749
H 0.6425367763211888 -0.8652705282956417 -0.7898549716395041
H 4.237368882267632 1.0783943164748606 -0.16707953710438492
H 1.6259610897639454 2.481363292576827 -0.3566234577893507
H 3.212198337713235 3.1337791072767534 -0.4487157089652055