18

C 1.029241809585943 0.05545365492627652 -0.05212040236061736
C 2.546422411782967 0.1161104015416571 -0.09876725471974422
C 2.9875961636201422 1.1735710754662483 -1.1177354502456582
N 3.051900431422152 0.3846382309104027 1.2443868492466539
C 3.088988580181458 -1.2607780679139304 -0.5072629106734226
N 4.546508266562814 -1.2858918122299177 -0.5233159596723927
H 0.6170127052496663 1.0112314006736902 0.26793661018492815
H 0.7048548922341019 -0.7063021782830786 0.6565031667310429
H 0.6072518363797516 -0.17546082253938894 -1.0382711601182788
H 2.5939058934513555 2.1521629102586717 -0.8387587162422052
H 2.6354516734174975 0.9452980018797142 -2.12618116552257
H 4.08339259223682 1.2584137128380686 -1.1418967425579785
H 2.865816946824465 1.3452350192835543 1.5056526575031182
H 4.051076940346507 0.24565608299511565 1.2385503383630754
H 2.638827625471029 -1.5440928784715962 -1.4651347484812822
H 2.742117476472772 -1.9786292571077273 0.23932382233554494
H 4.914713921963192 -0.9365320268646526 -1.3984886830173784
H 4.896075021145244 -2.222037023006705 -0.40601978171704567