18

C 1.0157693092973883 0.057352354892107556 0.1574623388130706
C 2.487529129476794 0.11897192610113277 -0.20578141749311307
C 2.760647122387964 -0.5239786795099228 -1.555889591600237
N 2.528105220390348 -1.9636218238364016 -1.5119566962110138
C 2.996900721644235 1.5651528928205352 -0.1750911800711791
N 4.449170036059557 1.630373325890574 -0.26814210342847733
H 0.6493395704824467 -0.972071270443083 0.06440401387267597
H 0.41953083385098944 0.6878836891400919 -0.5249868284456427
H 0.8292654518729231 0.39839783194867134 1.1727422233318585
H 3.0523162220510343 -0.44222451781479644 0.5467266297173429
H 3.7784408965711163 -0.25465462605275574 -1.8736072565408677
H 2.0723763962478077 -0.09261332813983442 -2.2919953729178313
H 3.248271696740433 -2.4144925053066366 -0.9701408516955332
H 2.5731082349062984 -2.358284007493644 -2.443850678907492
H 2.5925988504598063 2.049323435863171 0.7199902269560802
H 2.5765079409525757 2.0945432644586477 -1.0401771735357042
H 4.86880402098489 1.2786122602937766 0.5787417164334351
H 4.755507399880433 2.5902628616589594 -0.3769527124680804