16

C 1.1979974783991563 -0.09966171146808384 0.43022782287709105
C 2.6914295815861293 0.14136908570351248 0.25568042813028335
C 2.991805796857986 1.0289831097509188 -0.9294536046832254
N 4.407103966533488 1.233835023948622 -1.0634818845739598
N 4.876820598207795 1.9815944132537033 -2.043405743646005
C 6.135399007735541 2.156572592734545 -2.169963742067371
H 1.0081812878184657 -0.7463609476090259 1.293155710985643
H 0.777053826564383 -0.5818865760413343 -0.44498270354327923
H 0.6663454338293858 0.8387914041491453 0.5902677103356819
H 3.2101156940959354 -0.8163036447464532 0.1326172971442624
H 3.0978721350697738 0.6009008095078394 1.1576935363444898
H 2.48659016344678 1.9981896325060051 -0.8172261825417274
H 2.5878346682655704 0.5718477881014837 -1.8476710833421035
H 5.0424874861904225 0.7972747513515317 -0.40567656586398404
H 6.481737048538862 2.7827785043770614 -2.98429854944214
H 6.869446450159654 1.7215222340739338 -1.4873249586473332