17

C 1.3170861133322305 -0.15237617620184407 0.08434239306815741
C 2.804570788033555 0.13922260100314862 0.0325597948307152
N 3.241669585841971 0.7947183553254779 1.2456125559961275
C 4.465029285730574 1.5545639697116558 1.1459164810786462
C 3.1599050448918633 2.2347696855980033 1.2702303006723683
C 2.7035330607235935 2.9047392407947266 2.536650764643609
H 0.9930240111112953 -0.6734220495441559 -0.8139181510711484
H 0.7423952598016751 0.771794334544839 0.16087116070896093
H 1.0754275141537586 -0.7696710354252745 0.9463907610135144
H 3.0344873867370077 0.7447981941489105 -0.8566041452868098
H 3.3626766929011245 -0.8019397035942873 -0.056216893651588384
H 4.9720810168343545 1.5880564158708736 0.17851216292434888
H 5.1334282699125495 1.5026173838449404 2.0021187852751607
H 2.799618729904754 2.700841920216717 0.34403354087438764
H 3.1110870377497073 2.3749586942067635 3.404653944819219
H 1.6113634189381072 2.8945297294485237 2.612464842664265
H 3.0428198687092247 3.937023990489894 2.5727860583739783