17

C 2.890282308822318 -0.7682355649798878 0.8713031974196729
C 2.3241614472650287 0.24380156280381562 -0.10985309964834214
N 3.243452455411733 1.3400160647480919 -0.30800837150536065
C 2.7083839653773443 2.5745270626516263 -0.8461244196858818
C 3.1887510852296534 2.5143219821446463 0.5570297543441483
C 2.2436865273697095 2.6564110864918273 1.7066705343555475
H 2.217636654433312 -1.628719717923036 0.9662094266466571
H 3.0099288822032966 -0.3204703075473609 1.8615093229049173
H 3.8687046213565948 -1.1128774156514096 0.5355515660022702
H 1.3268620653049685 0.5653380151052138 0.21502759131031085
H 2.194668872714792 -0.23197818416047994 -1.0874372239663939
H 1.6351989702692113 2.641740682129904 -0.9832629598698537
H 3.2969797827406464 3.0631607839766994 -1.6270572946674169
H 4.1772480062130075 2.9123981134428067 0.7530755497751532
H 2.151760270372077 3.714913413221462 1.9817638269326552
H 1.235319342610243 2.304049913046788 1.4705096372187392
H 2.5915807265734356 2.1141882251016018 2.585196794932153