16

C 0.8680341422510847 -0.2685988186435415 0.03819082589918529
C 2.3563264219432174 0.046238104781644765 -0.028618719801366047
N 2.953592489193875 -0.20914452418364382 1.2692835739297166
C 3.0142257660862106 -0.8114759632350224 -1.098587828798707
C 4.411328323740388 -1.2447022399898415 -0.993275564547714
N 3.3239898488575417 -2.2010332046099497 -0.8092989193252151
H 0.35880393602371663 0.3823901336973955 0.7575776836595318
H 0.7165049689471461 -1.3107421826453491 0.35248804599946054
H 0.38899616851939334 -0.13818545780357444 -0.936415602335097
H 2.4611452180191558 1.0923670325803392 -0.33970994364249124
H 2.3343793296110755 0.06951127914639163 2.0188131651733534
H 3.8136539968363925 0.3126405231319454 1.3868735584465857
H 2.60199739710154 -0.6425413438055546 -2.085092254498568
H 4.990852441677481 -0.9478615570266792 -0.12546682029822037
H 5.000549859309437 -1.3740372997937955 -1.9052929080148386
H 3.2049238748570263 -2.3346428732498405 0.19299731760598496