17

C 0.7654498731780521 -0.16613431731858053 0.08502814202405333
C 2.282477327991374 -0.05764337931149171 0.0006590143426267763
N 2.9811366747241697 -1.3334588256138356 0.05387565296988722
C 2.727888876847926 0.683648597713625 -1.2644667238434684
C 2.285259807735046 2.1070880891207677 -1.313185490969598
C 1.5533124339392073 2.6508586578278606 -2.2776468214153764
H 0.4646990651681174 -0.6794213464480063 1.0050457224562952
H 0.37858280424556107 -0.7477727806125283 -0.7610773140360243
H 0.2894911498029727 0.8155871203940942 0.06724503646092214
H 2.640006298458572 0.5206079180293651 0.8638830882320698
H 2.702883110944662 -1.9047561491271008 -0.7472744259272135
H 2.7072025472491084 -1.8511246419359153 0.8745484312919563
H 2.3676533585568906 0.1469582930981732 -2.1460323318296224
H 3.8298364614032483 0.6435068904313455 -1.291501996158428
H 2.6137913590347326 2.735179852180587 -0.4863090415486787
H 1.2160156015484498 2.065236802171329 -3.123955356715415
H 1.2770554324513523 3.703848752189598 -2.262910082154663