15

C 0.8465528941173096 -0.016834823323440495 -0.08303970324865892
C 2.3578089022834745 -0.09522552052280171 0.10523329233687798
N 2.7738923487771725 -0.4058102099336074 1.4555532596505427
C 2.9513459119312215 -1.1309882401038374 -0.8578396021371394
C 4.405459338101006 -1.1146144695995022 -0.9166607426012625
C 5.605550160621602 -1.1013974130185478 -0.9911683037831884
H 0.4110082713575717 0.7139396726222836 0.6086676481595408
H 0.3845223093143553 -0.9896405941114161 0.12625741232922494
H 0.5786262272349377 0.270989042499335 -1.1023410323787133
H 2.7954391191094077 0.8789468101348772 -0.1435673767197147
H 2.368591035677322 -1.280816178285363 1.7711129787035182
H 2.4628406446657327 0.3105132598356784 2.101157556761279
H 2.554848639910271 -0.9576507391396805 -1.8578177046761428
H 2.603621218095349 -2.126941369399894 -0.559042983341264
H 6.659752390503006 -1.08819910516293 -1.0512259900503556