18

C 1.0459208937195361 -0.15329519774071904 -0.23555599719040668
C 2.448271476544658 -0.16412122667109624 0.32583674556521147
N 3.4312935662784394 -0.2887167129001853 -0.7277916745703399
C 4.7985520632379455 -0.20374445521598014 -0.2655243355910895
C 5.779336921929439 -0.5023065847076478 -1.3901452400928507
N 5.54724516833387 0.37677875038759556 -2.527876381375737
H 0.3023775103346257 -0.09020610689304961 0.5685259757308282
H 0.8566243477114456 -1.0656152480146184 -0.8021251169551654
H 0.886458641057471 0.7057299639448826 -0.8975676093375685
H 2.5778828094423556 -1.0077071172624212 1.0062268282490137
H 2.6148769570535544 0.745420183500144 0.9351013075911524
H 3.2835888165584217 0.44824563034058706 -1.4048846193913118
H 4.939272494849485 -0.9414071668571815 0.5299675077819685
H 5.039833075920034 0.7869861486503427 0.16711926214504783
H 5.701726510660218 -1.5708629549368018 -1.6503203144962308
H 6.793128680498057 -0.3369421773236408 -1.0169411393403285
H 4.791347830022833 0.018733223722750603 -3.094787027513022
H 6.365331164040413 0.4245309454274273 -3.115508383459449