16

C 2.3479604766832836 0.7727810673023982 1.3177875748247023
C 2.6822698512937806 0.04408221933007789 0.033172982111105635
N 3.1025286293139147 0.8978064438233186 -1.0540188310500396
C 2.1363928996548247 1.7728228158844876 -1.6568000428640084
C 4.427353817544657 1.0888091744305568 -1.3043179736201205
N 4.999561876577139 1.939675353660914 -2.0641061097584528
H 2.035310913067679 0.06999120892685765 2.0950307439028637
H 1.5303574670241906 1.4930024970662064 1.1776681427877356
H 3.215008046458482 1.3323518613403342 1.689275035089792
H 1.8085260959968261 -0.5397055478587831 -0.3029514552648753
H 3.477325677111393 -0.6817907552917907 0.20693439126910265
H 1.133348195557599 1.3713873330630784 -1.4919213946395364
H 2.293344401958711 1.8250212229289817 -2.7450231767643882
H 2.1633342200781063 2.7959486082375298 -1.2586228456189792
H 5.063944258948455 0.381153632367052 -0.7725155804591668
H 4.3249093993825065 2.5739121996590835 -2.504152414255286