16

C 1.9165913639660244 -0.5102175365396737 -0.1571451268490742
C 3.2088084481385333 0.24006353341327194 0.09670489928646993
N 4.286173965188914 -0.3443524426322233 -0.6524882184163486
C 5.569161263781618 0.13026861709502785 -0.6217060614187425
C 6.530010322781172 -0.636631223050822 -1.4907487664840862
N 5.991963169959599 1.1234573694681085 0.06279424031278966
H 1.1062424834802589 -0.0705737493654558 0.4205650310500406
H 2.0070140318795433 -1.5590083362061693 0.14521142561861097
H 1.6431099250392271 -0.47303672245569206 -1.2105048825850833
H 3.445878088751411 0.21182924734740852 1.1686276482326905
H 3.0908107329232832 1.2922152755960523 -0.1685245959836415
H 4.084224241700296 -1.1294758571602583 -1.2414006341824535
H 6.215595465415508 -0.6017982269301653 -2.5350506208072034
H 6.58238661644077 -1.6874257858012427 -1.1873535806862943
H 7.524512585601915 -0.18900849076413154 -1.4003954323893553
H 5.248718222065114 1.5434591631589745 0.6060239883167643