16

C 1.0524646671739404 0.6438814683516558 -0.005625294247015135
C 0.6266544068530759 -0.5231600857194035 -0.8869537968532187
N 1.6677594735676184 -1.0008112822204056 -1.785589406379336
C 2.7904741817721392 -1.6989190332788116 -1.2333190986866196
N 1.804050541593361 -0.2639938671972728 -2.888297960527128
C 2.861187845190039 -0.32945980900359223 -3.599393512900458
H 0.22165674699735988 0.9667057609337093 0.625836274374702
H 1.3625053291413451 1.4894620527228282 -0.6214229868450318
H 1.879073689170682 0.3721631405533397 0.6463623632643336
H -0.20847543132038046 -0.22380727717856053 -1.526461980316071
H 0.3023422079897867 -1.3675168688584018 -0.27909963903742635
H 2.4729956411295664 -2.1844104449743043 -0.3064796572270009
H 3.640546922840609 -1.0359743240475612 -1.0173056979328563
H 3.1327301856283145 -2.4724108007110743 -1.9252623576880639
H 2.8769055374005825 0.26120671692072067 -4.509591613471038
H 3.732474394752686 -0.9395797050129797 -3.366889014463268