14

C 1.0209521702471946 0.17024186081334067 -0.10794404008619321
C 2.46785353812241 -0.1726169396584799 0.07706077915602623
N 3.460723673247778 0.34757612583965436 -0.5191686385820641
N 2.6636450730349037 -1.2409550428269693 0.951083470511266
C 3.890484696078191 -1.329946329502689 1.710674872291383
C 2.595663151911533 -1.039545239223343 2.3827202523210262
H 0.8974560170934394 1.0280012786798585 -0.780740304019728
H 0.5588098811477815 0.4047193821133783 0.8562151067326506
H 0.4813252007449263 -0.6911826920959592 -0.528993772374057
H 3.1388842354829096 1.0499285716045157 -1.1834779414923644
H 4.587289226661863 -0.5121708180337403 1.5842954083980245
H 4.321229658000573 -2.3217345503214477 1.7868603476482305
H 2.449887576863701 -0.021520932752673617 2.736346794068961
H 2.0815830300746385 -1.8063108633784744 2.9534499540102783