16

C 0.9479316190763544 1.6214343640087512 0.9381108964660307
C 2.437193121398251 1.708377938683239 1.067287149893394
N 3.1664938322854286 0.811139804861624 0.5301150031594132
N 4.495042701378602 0.8505463271663027 0.6252549080067316
C 5.229545435564854 -0.20535525821809336 -0.007537929388589094
C 5.170598576297433 1.9005196719736226 1.3271128635869602
H 0.46998943235385865 1.5575366991601263 1.928467918819381
H 0.6747312205392665 0.7291645761459967 0.363357434387363
H 0.5430536249668848 2.5032677613775878 0.4405444129601197
H 2.847041544161718 2.542670295530321 1.6240302990046813
H 4.513930825001897 -0.8701736947366672 -0.4686691359618315
H 5.827041897702291 -0.7708029925924093 0.7069245431674608
H 5.901450057098725 0.18339958477875828 -0.7912214564500792
H 4.961789319658082 2.888704240354392 0.8948510066510637
H 6.252749855916066 1.7184712744920345 1.262478171378111
H 4.892922611734205 1.9308643474957652 2.384548446347108