14

C 0.9418959720771479 -0.5233479837373255 -0.7304170031087551
C 2.167233146791372 -0.02870315135371957 -0.023083879226715197
N 3.369769413375296 -0.371530930164221 -0.2775039061525484
N 1.9793113156792186 0.8869489385906577 0.9879773754343749
C 0.7904061470135143 1.4165847029377798 1.4457355157392313
C 0.6758543240710744 2.2963304482866764 2.4314467039101753
H 1.2256607520377718 -1.2416064246760046 -1.5018796487956914
H 0.3931956501933122 0.2964569446891791 -1.1992458424194279
H 0.26165693393099754 -1.0263802027154716 -0.02830134115637798
H 3.396127717416803 -1.035870660547815 -1.041239553790747
H 2.835738040347701 1.192961838579047 1.4149461494048505
H -0.08769228306200454 1.050215066307671 0.9436459686608432
H 1.5378524237744557 2.6802563320717643 2.9708766832744766
H -0.2932752013951438 2.6570742055712486 2.73097188512444