13

C 1.1927309454959314 0.0972986679865015 -0.05183584768004574
N 2.6304370580185585 0.03324019112284913 0.004513297820908816
C 3.2871471293216143 -0.7415020426788227 -1.0136573752597056
C 3.3332834883060727 0.7419061419243406 -1.055031731788473
C 4.5165719420072366 1.4801123317761333 -0.7220844327623314
C 5.511406949161856 2.10484356410332 -0.4771015293003569
H 0.7797494392999466 -0.7620017468748135 0.48734228080416775
H 0.800610574012668 0.08215188338721843 -1.0774154503289302
H 0.851526569365826 1.004353647678189 0.4461034367997577
H 2.6626084245480675 -1.2253894504772957 -1.771179282560822
H 4.168094021985524 -1.2960756521544183 -0.7123358870900112
H 2.703334796439004 1.2103578879130839 -1.8119496957849313
H 6.388787536272685 2.6571984543324723 -0.2400654424334743