14

C 1.1497597588127628 0.0792896336105019 -0.2472232685069375
N 2.5559077003257946 0.049572562920309565 0.013343040109345315
C 3.364327723826101 -1.1559993685524048 0.09561732165995077
C 4.765843553076666 -0.5684418468232255 0.3900491221734296
N 4.604010073490018 0.8904489013986312 0.4371839432680194
C 3.377399735859557 1.1135240420156838 0.21856563621830877
H 0.7798185441615437 -0.9308001194353777 -0.37372725111606225
H 0.9144276580340553 0.6311655391524879 -1.17556475035496
H 0.5865335165948903 0.5391785166804 0.5677483610983745
H 3.3313984363249842 -1.730244446871153 -0.8455012621013908
H 3.003480295154152 -1.814021059935299 0.8927160576078605
H 5.485360965105478 -0.835967056551111 -0.3886434433739231
H 5.171821916602616 -0.9278167933696678 1.3336489494305082
H 2.9461017179088604 2.118491904056041 0.193083655223376