16

C 1.167609705529985 -0.4604474256220019 0.15422245317102126
N 2.5697541614806876 -0.1571635016472008 0.01018834382352879
C 3.0358197711722923 0.8585868143186047 0.8973106246147742
C 4.102929906110081 1.8123282267353737 0.4477016985641313
C 2.7195370034726505 2.3204333433971804 0.7157994249016891
N 2.5150532967522077 3.24683618804263 1.7961099404837078
H 0.8765863080439852 -1.220795253158526 -0.5790082356096271
H 0.5109025264873179 0.41154647792132243 0.03307655450764374
H 0.9722128232922056 -0.8724372578646175 1.149227021566825
H 2.802742044115156 0.07204078288947878 -0.9440279373155992
H 3.113018110435303 0.5265585812946146 1.9414680728973188
H 4.434784441990322 1.7548331469793823 -0.5758661450955121
H 4.884519225056768 2.0659267154113605 1.1466622158579771
H 2.135247766163818 2.5592795559814627 -0.17132087477790767
H 3.297736623629678 3.24509796897629 2.4341955916020206
H 1.6775714726878463 3.0090297915871034 2.3319413573707983