17

C 2.7931753232031484 -1.1056928472506216 -0.1355884035055106
N 2.2708658541676514 0.22342170211081747 0.11471395363834005
C 2.829114719424882 1.2375410074749578 -0.7198916457479771
C 2.4132828589693265 2.694965957193211 -0.4607820031772357
C 3.8276210104334702 3.126425621382016 -0.8929642225796125
C 4.315315268467622 1.6984756366191343 -0.6145199716145454
H 2.3365327028399006 -1.8113110257990641 0.5647911721813077
H 3.881885801933801 -1.18088888499374 -0.04555388908423631
H 2.51907249569582 -1.4147501872770811 -1.1396566301345081
H 2.3975990607329205 0.47035485127995075 1.0870171899431424
H 2.6217535034561004 0.9693980711480357 -1.763012292374532
H 2.267136778691534 2.856295552374322 0.6114859412212011
H 1.5510433000949801 3.0832427197540073 -0.9978749126502754
H 4.295909510135304 3.9424047559143647 -0.34508344807574826
H 3.8690024676631327 3.356159962349002 -1.958704102986657
H 4.6708352437354135 1.5906702583960644 0.4175341532475032
H 5.060119997885747 1.2570196851756055 -1.282234084961801