17

C 1.2308071310069488 0.5369224836594333 -0.0426913002562472
N 1.8809785112629234 -0.18737427947370294 -1.106165874927607
C 2.8713938931966805 -1.1441010166223176 -0.6906983364596894
C 4.079528942200871 -0.6218731903531353 0.04635217567536863
C 3.0559818487279538 -2.3035088554223067 -1.6180798331656268
C 2.341136280753915 -2.4884874219899706 -0.3144843482204903
H 0.460070995211716 1.186051407170352 -0.45595606096184166
H 1.8947426233881415 1.1535408120886428 0.5708985289016544
H 0.737266403787388 -0.1712591900881132 0.6327568255545436
H 2.273011854721358 0.4506530890365221 -1.789920325937923
H 3.8054697383502445 -0.12635863541409126 0.9746798947563992
H 4.629078620580917 0.10217243874187473 -0.5711111278540572
H 4.770001822100234 -1.4293148648502976 0.297021621107039
H 4.054531777391709 -2.7191622060356813 -1.7191364002027334
H 2.4571291076451227 -2.311731121571368 -2.5230140923220326
H 2.834730312588898 -3.0405863429334685 0.4712155424941124
H 1.2596998214701718 -2.6237703907185015 -0.3610589786190096