17

C 1.0558681811747779 -0.23979953295800863 -0.10999867444484376
N 2.4822019000704083 -0.07764978326744852 0.004409420284685604
C 3.1564550056853053 -1.3506035548929474 0.10899706435920938
C 2.9819480154321014 0.8356302934738582 -0.9776857579772587
C 4.365281104682866 0.81175781838771 -1.5217303830044107
C 3.213187949140999 0.4786300925550693 -2.4231257606011383
H 0.6726078212332998 -0.8083005691956827 0.7394042391002756
H 0.7462908776114333 -0.7579782168418123 -1.0359802498006674
H 0.5646211736426571 0.7406396561099613 -0.111109333227298
H 2.720198750099238 -1.9172850318440415 0.9304536293477526
H 4.21435254148464 -1.2051113705173162 0.34342163669953546
H 3.077113615409994 -1.967315548241617 -0.7975350882774972
H 2.568415001267962 1.8358616153920095 -0.8193460917259858
H 5.02090268523495 -0.0002507935785094472 -1.243307030756263
H 4.866527971449495 1.7675108544935434 -1.6434883972329393
H 3.105964351627088 -0.5560760242476734 -2.7198845262750098
H 2.9191161495952813 1.1895151198774576 -3.1928455579263804