16

C 2.366084260878121 0.005206358282664712 -1.2613294536031499
N 3.6216627063909046 0.5659382417305981 -0.8081702963797205
C 3.6694531778599018 0.7913378994358194 0.6271888437241252
C 5.085039147631682 0.8018381388625705 1.162740516496399
C 6.047041669861278 -0.22506114406465685 0.7569636930754611
N 6.209220299358538 1.154750985667801 0.31354623568953877
H 2.3776138185881113 -0.08106686988210635 -2.3498834485530415
H 1.4723382181862126 0.5928471405431779 -0.9756935514018967
H 2.2424171388467737 -1.001683680978316 -0.8500433292883841
H 3.7804525784709426 1.4352521000988088 -1.2890571513302325
H 3.1185810723339094 -0.022812787987148263 1.1207778520258518
H 3.1650698999102342 1.7218470422828396 0.9190633647416677
H 5.15807169694561 1.2040787181058707 2.1715969053638866
H 5.713451713845487 -0.9488601548079112 0.01677511858755315
H 6.7981904270156335 -0.5857572937911918 1.4627063674858887
H 5.8952225391036 1.204709746105896 -0.6519456809241548