15

C 2.621136721882522 -1.2004847887281387 0.6965469140034609
N 2.3052579118436936 0.007709474914293064 -0.03604352941668784
C 2.8765150984338543 0.06893025852853578 -1.3700538889381002
C 2.373411006395115 1.3047681081778908 -2.1015282805193936
C 4.348589469052197 0.019100769762672165 -1.3849919668822004
C 5.549501614470073 -0.010000158193732686 -1.350434926881805
H 2.1668278845299183 -1.141781415082496 1.689598324332589
H 3.6992315073778275 -1.3775055819237971 0.8162030690978717
H 2.194147576320833 -2.0659319761218313 0.18977356344566074
H 2.606989750927805 0.8203411973489586 0.4809172935551151
H 2.51129617291903 -0.8251975769541388 -1.9115940285631148
H 2.7064329993778995 2.204844326739943 -1.5912487182866841
H 1.279142539407238 1.2928159637124408 -2.123248897494587
H 2.756912660178669 1.3339948144653544 -3.122442992778589
H 6.612853871582498 -0.029118607060116236 -1.328613625069493