19

C 1.0454259182337517 -1.2528802598480153 1.990533990414957
N 2.4866018803188004 -1.362196905215686 1.9169738261539948
C 3.1358705874277737 -0.12888265950004177 1.5374849907357926
C 4.656871646308495 -0.25907129629952413 1.47744083684771
C 5.274549806063738 1.0061696883848887 0.9072657076803806
C 5.243561457846662 -0.6065589787699286 2.8351199218821086
H 0.6149769841977556 -2.2314155959521735 2.2072984915747305
H 0.5790023602753291 -0.859660644520555 1.062179972011882
H 0.7731767982658787 -0.5730852118013924 2.804569949701864
H 2.7436623751203895 -2.0869985090766363 1.2520213924230614
H 2.8803781362133627 0.6273923050522103 2.2829644160229354
H 2.774792190254752 0.25419979953949073 0.569021419991768
H 4.881833230761348 -1.0873757778831967 0.778673644645533
H 5.061950657894251 1.8594335618384348 1.5564753706626078
H 4.885948501466816 1.2393779143785029 -0.08467703808821064
H 6.3591375735238715 0.9068166933470284 0.8398962355593635
H 5.087573908873899 0.21431980084389396 3.5342755718894296
H 6.314599706444425 -0.7919288380674446 2.7620437660676984
H 4.762470403727618 -1.4955035811967696 3.249531376887522