17

C 0.8923628219107536 -0.06286720624321358 -0.056573703244220695
N 2.3397605200699543 -0.05067317471678405 -0.0002892738246563855
C 2.871636346786331 1.169461581378461 0.5639627692213837
C 4.3948622596767715 1.1546801872606662 0.5756973334194417
C 4.97972430116687 2.343557998726611 1.250143170259958
C 5.78865109587012 3.2278504113530517 0.6860057075014638
H 0.5456996564786383 -0.9776740960088594 -0.547663849701673
H 0.4593907227410199 0.7992232847865823 -0.5994651741604444
H 0.48725080485835476 -0.050979273547599485 0.9543623182765373
H 2.723728320359786 -0.18556805280931585 -0.9264360396278194
H 2.502297176475558 1.2562372481257031 1.5918183067187284
H 2.522549778784625 2.076159664148426 0.0361122014042132
H 4.775812268190581 1.094432076367835 -0.45301746079893285
H 4.713216280000486 0.23823767879435764 1.0914966217988213
H 4.698982724229047 2.489612635039768 2.2970354051316746
H 6.095724117652509 3.127146810124067 -0.34998223711603677
H 6.176611796153097 4.0829200390848746 1.2283506096335042