14

C 1.2414165550188974 0.37828951963734814 -0.08636383260939903
N 2.6073390593133543 -0.0727490872027074 0.02683489409285933
C 3.2484786693617123 0.10181222893576335 1.2409349003452548
C 2.7260399484013256 0.649632040086368 2.338260085242717
C 3.2157958843398573 -0.6498012076036429 -1.0600701390941012
N 4.383323839500336 -1.1197597206079883 -1.2105588819840203
H 0.5975111634506572 -0.13577029992170855 0.628922291911731
H 0.8768805350148925 0.1784936798058488 -1.0951268990562737
H 1.1711012150508078 1.4515265930568566 0.10519835415042832
H 4.266369278628961 -0.2543517421312347 1.246540269485552
H 1.717009623225974 1.0259132525071586 2.396149595457577
H 3.338563012351378 0.72011423701637 3.223246329032587
H 2.5483915893534603 -0.6907846255949961 -1.9221193787444
H 4.954294274655013 -1.0514629578829293 -0.36795282261325024