18

C 0.9369812956067848 0.2812075194968457 -0.9893353230953532
N 1.949976084484835 0.18668905702718186 0.023172942926943815
C 2.952654403866821 1.2177376686654675 -0.15939776355104884
C 1.4065942337146375 0.21504178100808782 1.3720972497093389
C 0.576729096721017 -1.0020512845900156 1.717554319171802
N 0.21336118600469808 -0.9507337144951952 3.1273801226185847
H 1.3943086878953719 0.2478897804184495 -1.9787507860147608
H 0.34459949365423215 1.223004436395646 -0.9189290656798244
H 0.23182938875871398 -0.5590658031922703 -0.9247446426887542
H 3.387848263726487 1.1358608422098286 -1.1560363700983463
H 3.7532953628013623 1.0886195339110292 0.5796226904909497
H 2.544578325804848 2.2338270079122924 -0.05313561260194143
H 0.8044411421302021 1.1271936070754671 1.551394426593578
H 2.2574751701118663 0.2690731089432741 2.0619621448817633
H 1.1415149929809536 -1.9039320860461153 1.4251418170180477
H -0.34734733014512753 -1.0101134792313673 1.1406347512140573
H 1.0395172405644553 -1.089146188151945 3.7130258536965943
H -0.4360099311210637 -1.6944810815071114 3.3511766359351283