12

C 1.0841712521291686 0.20853710777769716 -0.05644693022433879
N 2.5310556502033776 0.17321650571744734 -0.030104246593548444
C 3.22803553848883 -0.58212834105264 0.8338567515138623
C 4.555521603012579 -0.4859794222758678 1.08670285716553
C 5.196378634116762 -1.3865247605931907 1.9766829334324996
N 5.734508733195482 -2.0994730928599403 2.695466508047494
H 0.7328719255317908 0.4322088652972543 -1.0652370396879314
H 0.666795859956726 0.9400240350536442 0.6394088248089618
H 0.7012505109360775 -0.7771643678179287 0.2190101530238784
H 3.0086016727827234 0.9401000187472454 -0.46980309963502526
H 2.645560453642226 -1.3421469727558866 1.33879253144143
H 5.172905779055546 0.26727861710448486 0.6093880963298488