18

C 2.9405057545909306 0.30291099615401357 1.1526873554646544
N 2.696678535071229 0.21872088685996208 -0.27004945718937495
C 3.1305792250694635 -1.0150798534054915 -0.8983816414530112
C 2.4842956913645806 -1.1386194993543624 -2.2649001160258715
C 4.659807490119692 -1.1415381292255398 -0.994995732490732
N 5.225296495255483 -0.044388085215682827 -1.7754902044442
H 2.5864584738026872 1.2611855307028912 1.5294612203258946
H 4.000917612476713 0.1902246715514373 1.4489896825952915
H 2.374295707450717 -0.48384101316577216 1.6641586439255531
H 3.1689025246655174 0.9874087785784909 -0.7439326636896966
H 2.776163810789566 -1.8365743406916155 -0.27701538768869444
H 2.7561663776330216 -0.28819531528055176 -2.909416868595452
H 1.3972238113239996 -1.1324722929752948 -2.166185276533754
H 2.781233748755577 -2.0531081147231642 -2.773060592123986
H 4.912978819417621 -2.1360041071131177 -1.3975189920946205
H 5.089375789139879 -1.0911335633008772 0.004399251806887999
H 5.106729640043455 -0.2045851430702754 -2.772056290950259
H 6.209983123460306 0.04673952844723435 -1.6095899418864708