14

C 2.6285612000256577 1.0709053711780496 -0.9061050197665396
N 2.302964207289102 -0.024758096478923273 -0.0008559564223532832
C 2.859870305423272 0.09591880666767026 1.3231356788325557
C 2.400495019151014 -1.0418410375438565 2.21286125632934
C 4.339859221108004 0.16841112091565075 1.315835890204622
N 5.4952412485007756 0.2085263186038488 1.2514051005109996
H 2.173524536569955 0.880318915859826 -1.873100495993543
H 3.7077577156235555 1.2177018363450007 -1.0469639388282557
H 2.2044338399159855 1.998594642474961 -0.5170144381248574
H 2.575312347741529 -0.9146035882892771 -0.4086619136172684
H 2.5104999045409224 1.0507393437598673 1.7436652788917935
H 2.733563599628427 -2.0047721284942894 1.828784415369098
H 1.3062990024209218 -1.0404621219247276 2.25537046003934
H 2.7852731041063143 -0.9292185166926166 3.2331725790878423