18

C 2.4707278640273342 0.8206011717998407 0.37688327305029923
N 3.8250552521699395 0.3879278582885399 0.1285726438899958
C 3.902105699778954 -0.7693254911008484 -0.7468356180819536
C 5.340905818744324 -1.0489931843270466 -1.1687480966280344
C 5.844693340590826 -0.03370811582860504 -2.1783219125819806
N 6.169179370598736 -1.1510905650108558 0.01892893314094592
H 2.4785755612238978 1.6357567566104103 1.1078805109762486
H 1.8099951061863169 0.02721837893287284 0.7544447195634749
H 2.035920430223246 1.2147149080223152 -0.5389158545907792
H 4.268462642608835 0.13456154418666005 1.0047192512057113
H 3.29635091735595 -0.5573856643793212 -1.6374472190304419
H 3.481600218832584 -1.6764952076873878 -0.285581266693226
H 5.340440609517706 -2.045968194286992 -1.6407660992071451
H 5.776713362351758 0.978103018390088 -1.7631222111745855
H 5.253162097425474 -0.042279945691624014 -3.106237035134229
H 6.885346751310056 -0.22807106493000512 -2.446298077377302
H 6.414255739394688 -0.22177826638276454 0.3430098647452595
H 7.052574122426203 -1.604082610545632 -0.2023233434684925