14

C 1.3684564279740516 -0.24022270218996392 -0.2907026921158621
N 2.8046614470239435 -0.06347958860574614 -0.13782332212356643
C 3.1577685807926605 1.227066377302095 0.41749656597459306
C 4.667779654118432 1.2910992538433612 0.6417534300536064
C 5.078986172360811 2.5543053541900385 1.2272160254301863
N 5.3820431924609595 3.5642271230830462 1.691784213760733
H 1.1753188805038763 -1.2031622443796062 -0.76589674354429
H 0.8824261547562652 0.5503765371694398 -0.8881710213532197
H 0.9015936672565587 -0.25156023374323166 0.6897290600916752
H 3.2581305432410366 -0.1755822414008328 -1.0416209603610607
H 2.6482274730362856 1.3292382336990125 1.3807872895159283
H 2.8352671600198804 2.0797494123300027 -0.19972154876214163
H 5.190841279672543 1.166681995508143 -0.3089728323334379
H 4.97923028558559 0.4702271122317861 1.2938870472436577