16

C 2.785523342035147 -1.0191987776640268 -0.44248532172756416
N 2.291432502434243 0.10731480043263633 0.28644115759213684
C 3.117031219747184 0.956201537976213 0.9581661597849996
C 2.4330243448167534 2.0808436833982196 1.6848745356622032
N 4.376280930457542 0.7420919178017633 0.9394961470077804
C 5.2362500449457965 1.636963107016249 1.656174071589834
H 1.9513922820922631 -1.5506055745910035 -0.8991899904628441
H 3.331548762087535 -1.702161717354722 0.20287560433178614
H 3.4859790221432743 -0.6998210821602119 -1.2363754608901383
H 1.299708127652933 0.2858828233514936 0.3050696572438743
H 1.3569860363936521 2.06112664726637 1.5551804651486596
H 2.8060170601700363 3.040494787834043 1.3184199979323221
H 2.6632820175934375 2.0439594490009187 2.754220767858521
H 6.275103568072689 1.3192189293166574 1.5381904393106645
H 5.029706274003565 1.6615965959488703 2.73610172735562
H 5.178115901345983 2.674056078006478 1.2928665188360433