14

C 1.284896228487618 0.16694150123769178 0.2059023198800847
N 2.638587048819275 -0.03875138107662708 0.6554004981627088
C 3.2206821340923044 -1.0705575517626351 0.2675527247049823
N 4.547410784955806 -1.3578285992292094 0.651759884339308
C 4.830885751711745 -2.7824231969504325 0.800476655453778
C 5.335599318804481 -2.050866348920881 -0.36580340125577765
H 1.2250637972650527 1.1211418940913271 -0.3205322453716776
H 0.6228400358073456 0.2485216209280256 1.073311894195677
H 0.9013115438013277 -0.6270599996187795 -0.4532440495617237
H 2.7427703120386377 -1.8146375300347966 -0.40147317959893747
H 4.007300953840094 -3.4785468749429183 0.6481983734513644
H 5.490988328440001 -3.027644137595396 1.6259274783683841
H 4.846681260101257 -2.2508220166886415 -1.319466113548555
H 6.364732795495903 -1.7468325551981434 -0.4262895233369481