14

C 1.069791188277215 -0.6353721221541356 0.27254242353967806
N 2.496728810978677 -0.5810663338460383 0.1691017046761703
C 3.1610706321402 -0.8833624577712705 -0.9821334353779961
N 2.632576441851721 -1.2306114204511949 -2.0987870096981993
C 4.639616216161627 -0.7875749199370636 -0.9599750123365527
C 5.409955896963244 -0.43858987471463046 0.05984918410532536
H 0.7710809991524972 -0.3593175780888417 1.2827989710290864
H 0.6889599058514343 -1.641243827163595 0.07261042602113024
H 0.5835179921261329 0.06217537474520929 -0.42265509055323025
H 3.026377283779812 -0.31664424553184 0.9733625172373552
H 1.6178872669386999 -1.2772897873765443 -2.025105506443902
H 5.069698787666279 -1.0401087513311238 -1.9192467829370736
H 5.023950523563476 -0.17094453482904431 1.0442769567784007
H 6.485916183311956 -0.40981711222670714 -0.05363828760860022