16

C 1.405401960102078 0.9464377615212506 -0.010785176813759604
N 2.7991246182820997 0.6464682031640816 0.04742492875518679
N 3.2506487220081204 -0.06823527075894904 1.0871261604789744
C 4.488019208140619 -0.35925150992188554 1.1623390277385006
C 5.491148252691504 0.07013080818556387 0.13813660560912758
C 4.943925938351506 -1.1449419002275723 2.342778304323135
H 1.2168007445682316 1.5291644213868152 -0.9193012922642042
H 1.0746839253341818 1.5439581442007366 0.8433365892128047
H 0.7842762360104555 0.0407412044293612 -0.05320083753148049
H 3.423841058475711 0.9551325977669342 -0.6765079823949011
H 5.2442105857221675 -0.3335391354724859 -0.8552186586893286
H 6.4981869398128005 -0.2815422455371638 0.39689081599220655
H 5.540486076178157 1.1568739758702424 0.0380179745440287
H 4.106526074415332 -1.3699693341984411 2.9967616863637407
H 5.699215167415576 -0.5997466147415248 2.9199927973576125
H 5.4116540757748695 -2.0942365176673006 2.0326136472336533