15

N 1.0817626673916063 -0.12758276602101618 0.22365474084320353
C 2.4783559462951246 -0.08536978680065814 -0.12059575779554119
C 3.0438183660089098 -0.5918945950196345 -1.4132642727236038
C 2.949659758895545 0.8898356228062679 -1.1580168076268826
C 4.1338708341769195 1.733083069011598 -0.9232892979299115
C 5.39119091392535 1.4142551206086444 -1.1981375563160939
H 0.8156194198855431 -1.0718022544807626 0.49919754212518186
H 0.508574841499368 0.12565785166552929 -0.5685151605493967
H 3.123177123031463 -0.1819545822305349 0.7406345642631427
H 2.3496792758667318 -1.0108384156994938 -2.134982776798616
H 4.021190957126262 -1.0590295270149541 -1.402525463779644
H 2.1361548158758428 1.3994700184125735 -1.6766279168081448
H 3.932680032932187 2.703515352758852 -0.47398300553258393
H 5.649379722546481 0.46711271439840196 -1.6648989537363292
H 6.213924472557735 2.085596022004855 -0.9735016976874914