16

N 0.9638089435880263 0.009535741905917465 -0.16620086815654944
C 2.390754993708593 0.1269759027585705 -0.021216910687700218
C 3.0967399001113423 1.1480838009139995 0.9082634204393832
C 4.148128450651499 0.05926244880322429 1.2045442547139182
C 3.1229539677084186 -0.9906299672524161 0.7636733377580978
N 3.602760230990663 -2.2025295101570017 0.1547034233825419
H 0.5902884551543942 0.7578097980970693 -0.7264082269252822
H 0.5141838589871682 0.05308352982160174 0.741017464359019
H 2.839859151688535 0.18933821430060957 -1.0231111911752047
H 2.481673071670409 1.352264597873848 1.7911409500345838
H 3.431964391197644 2.0950935792752583 0.48216428095969244
H 4.55532939282659 -0.008719510621441414 2.216835373590944
H 4.982873054973029 0.11771915899892879 0.4945426633441
H 2.5063872572503962 -1.2664171907225201 1.6222956970909863
H 4.138527261297491 -1.987737694793261 -0.6821482796464146
H 2.8177413242674945 -2.7875532422096074 -0.1309424451938546