17

N 1.0650925860293328 0.009882176782790575 -0.08964880068201338
C 2.4959692734270167 0.04676309443144153 0.15394907703181815
C 3.0483253522105573 1.1686834246622135 1.042069077063697
C 4.46613090252591 0.7105897945318379 1.3629191016744417
C 4.372894775861922 -0.8298276634590808 1.4472342691193258
C 2.9899702721506434 -1.2001216785833706 0.8762913296235211
H 0.7632330559253612 0.8476460906674023 -0.5649470808771276
H 0.5610778158906605 -0.037814637379292616 0.7848776582883437
H 2.994220786876543 0.10707112551077232 -0.8166858000296751
H 2.437337883547574 1.223374335791008 1.9539867072525705
H 3.0127017985474702 2.1508193861284424 0.5635675701149704
H 4.8550053231683465 1.1591765767666946 2.282173431858207
H 5.141591219281096 0.9996460147664821 0.5564145016096762
H 4.472302790830049 -1.1880489489075217 2.472960136850145
H 5.174289260625419 -1.2967465876891815 0.874913218355416
H 2.296109309162746 -1.4343255879630414 1.6906062502229158
H 3.0144436720537255 -2.077904277567811 0.22019734861941698