14

N 1.1180613811989346 -0.20033461582314233 0.2507282296469135
C 2.3242122092916038 -0.04300691051328079 -0.11585814823198501
C 3.1817250451670005 1.2105635485280368 -0.1540039470639566
C 4.424979076651824 0.7887518189207918 -0.9343660131081832
C 4.506324756826998 -0.7157132603347208 -0.6825318894601918
N 3.1126841988856673 -1.068191717551116 -0.5460393141041958
H 0.6991942337210615 0.687448899809147 0.5072682164597491
H 3.420800775781681 1.4855460551292816 0.871168564532517
H 2.6425582137573826 2.054955227929689 -0.6003415064874262
H 5.329729976753557 1.314141811230745 -0.6295968380144201
H 4.272354653361179 0.9716838271912969 -2.0011043742378165
H 5.079267403411881 -0.9241271563928456 0.23048689490499075
H 4.977358289860021 -1.2485313803250897 -1.5060380175929764
H 2.7996052357865064 -2.011095011917879 -0.3909425035325266