10

N 0.9116840621336358 -0.09980727460911931 0.09599393249361635
C 2.178314206417787 0.006046463879583167 0.08593116765301441
C 3.031415211125478 1.2144276695211946 0.0905970967374535
C 4.296501391529493 0.7789605969571973 0.0872667621074315
C 4.202905789266039 -0.6993577977656588 0.08364943213585252
N 3.0097454667852634 -1.1527362166848998 0.08959311928247356
H 0.49015613128313457 0.8220173960225582 0.09964547242977857
H 2.659031608600311 2.2380658507107896 0.09181123351558962
H 5.208560996338222 1.3592000824621484 0.08641451189127485
H 5.063149056460915 -1.36613587489283 0.07926745007676249