16

N 0.9964002480037695 -0.01751386809173686 0.29332661026604206
C 2.433108509973135 0.050495528451508974 0.08932523158652252
C 3.202029268079666 1.280148055142117 0.6634800505309624
C 4.248690106250465 0.6797875838040539 1.5978919420404152
N 4.460927497695174 -0.6429581303460317 1.0260649461373734
C 3.126560752913124 -1.1436956325863843 0.7470123691091721
H 0.5283136842603261 0.7307433674253547 -0.20278049523787142
H 0.779474655791248 0.09220478649629754 1.2786224603149077
H 2.6027611635194674 -0.002324641375629472 -0.9937094833459998
H 2.522733478741414 1.9574462624790803 1.1743610812484537
H 3.678134562058122 1.83738315399272 -0.14752090860981834
H 3.842873168546205 0.6362104194506056 2.621338847674652
H 5.179536654500399 1.2517683197533074 1.6320904738678772
H 4.985614371241247 -1.2481353374317274 1.6371940110831225
H 2.5659058346662835 -1.4116706469898743 1.6542493354009546
H 3.154418341974211 -2.0180505860780635 0.09929433264509806