16

N 1.0100400042505957 -0.06923946289421594 -0.005094776134649894
C 2.4493529111736208 -0.024748716705296943 0.010988475300430647
C 3.243476281229512 1.0376337204669555 0.7985311071462505
C 4.246983879729226 -0.057227005231340326 1.1999360342849423
N 5.460434616102405 -0.01567576543512249 0.40268388328723126
C 3.168562501106545 -1.1099794624894754 0.8264500783777603
H 0.6184842091455143 0.6944107865466731 -0.5402256974552583
H 0.6413582864635003 0.008045561181813671 0.9342540232679085
H 2.7775005299114808 -0.05105989904547923 -1.0299443247663884
H 2.6769906587321417 1.400073240170697 1.6601494688826528
H 3.6541778772986993 1.9000716030531026 0.2587018764165188
H 4.54627943253026 -0.06298856120929074 2.2521768148681294
H 5.231990741124616 0.018155287546949905 -0.5841686875511654
H 6.004958352869022 -0.8612719755536975 0.5479491300164637
H 2.5656718315147318 -1.3898668736072168 1.6974594528226548
H 3.4911915280633674 -2.0126430821333248 0.30862296154260577