12

N 0.8592507760752075 0.018805508461375235 0.018342361927667274
C 2.2344786936866514 0.00386485905010506 0.02510085893488828
C 3.0841365376050547 1.0923759341889017 0.024282644435276994
N 4.371949066715224 0.6190096608699854 0.036023136812971236
C 4.36239419788879 -0.737526342194711 0.02758812286524661
C 3.052992883857097 -1.150804633252454 0.03159610187390048
H 0.34637230246299017 0.874703053382703 0.020346786809704066
H 0.3530263866998078 -0.8465331409325221 0.01227924043983816
H 2.8693060406965154 2.1492382064650326 0.02606459733747297
H 5.191589109029217 1.1867319204925009 0.031126082271361214
H 5.27879081077918 -1.3102078018070964 0.03598071873828709
H 2.7251140894185086 -2.1846808208634205 0.020411871792699935