12

N 1.0581828218284741 0.05859064897761323 -0.4000490215142518
C 2.3010277923344975 0.04133102541294886 -0.10566788217787534
N 3.1424783310421187 -1.0171881488009915 0.14259944252831272
C 4.491541452968631 -0.6085063347640733 0.43413202749079305
C 4.395789240038089 0.871735471994304 0.3322211376440772
C 3.15300460240366 1.2374195283848077 0.01750891507178004
H 0.664932211902004 -0.8762095943139309 -0.4323154059533822
H 2.8444511529612613 -1.972063572455702 0.12841398143249994
H 5.214306176302413 -1.0228305253414434 -0.27750654687634646
H 4.824359042779163 -0.9225055270619795 1.435789355108551
H 5.2381161786156 1.5273489911552407 0.4868847671577032
H 2.7552758007711375 2.229452726556895 -0.12137255026732705