13

N 0.8903482172987266 0.031368738907254966 -0.0917624263898633
C 2.045867853634255 0.037659582544972536 -0.07742814362189171
C 3.48784090141444 0.03038140260175215 -0.013210578451884744
C 4.194042024166415 1.1124198572165436 0.8460364515712547
C 5.222487365084058 0.0365732020982212 1.2527117664603482
C 4.20001886044292 -1.0453158239000353 0.8378022319612313
H 3.8781003437559276 0.03581180771178199 -1.0407745060038243
H 3.570949285778096 1.4072988169143428 1.6807097340554964
H 4.55585017523971 1.9940229975684196 0.3221383894604821
H 5.558696414298959 0.032397778015416004 2.294450710623478
H 6.091049056144153 0.03853054134814724 0.6014058324570744
H 3.5636083079711938 -1.3457916207439748 1.67338473645038
H 4.551930558322317 -1.9290115176836449 0.32006410382313494