16

N 3.09679009320566 -1.0293487271636297 0.5482805757240711
C 2.323096241256829 0.07217608153753267 0.01198766784293821
C 3.137913704059155 1.3389425672378268 -0.013520365099158873
C 2.470501338474112 2.622070935389716 -0.5145076254539674
C 2.9808444048584923 3.282065500748443 0.7811492413805153
N 3.413825674302356 1.9609130049906633 1.3146811052995104
H 2.5259638619266203 -1.8529674624014474 0.6667794716617766
H 3.4796975495319975 -0.7885245338551721 1.4571211892418006
H 1.385498404184761 0.2803442270115565 0.5612174007863191
H 2.0420055717920587 -0.17145456779642443 -1.0236991395956119
H 4.089517758633538 1.1334302534078915 -0.514889321345403
H 1.3780160548646205 2.5360553717869543 -0.5412414802282446
H 2.8171469188007405 3.0350333411573227 -1.4633993462930734
H 2.2531350062693747 3.8148770343808565 1.388508187428971
H 3.843114341023678 3.9357076386864573 0.6255881527692115
H 2.734675701739375 1.637352681804172 1.9922546678895914