12

N 1.0848810310201558 -0.23560443483906027 0.8397882626280864
C 2.134113108072377 -0.0673601103839928 0.41510952091723946
C 3.490923590792061 0.10746813045183687 -0.10760789312343975
C 4.2934879450998755 1.1949478268074016 0.6500413298385452
C 4.934696711366542 0.026323065675215418 1.4226521143932336
N 4.459594271096206 -0.8820249052964598 0.3728066854283346
H 3.4297539217113 0.2013513358468435 -1.1949418293016352
H 3.7314777519000417 1.926303972171091 1.2135363053914625
H 5.002140427056271 1.6912078734877203 -0.014272154610480297
H 4.460862325772743 -0.12127262514905886 2.3976972844507682
H 6.016652420249733 0.04862158032367023 1.5542299249557427
H 4.079537839193508 -1.767263987963239 0.6718495893261327