12

N 0.9316106735302329 0.07862050823097878 -0.01891482325679656
C 2.0781097151212142 0.07558436837933226 -0.02262874348633776
C 3.525901864190417 0.08308504460641693 -0.011904858962394384
C 4.253627346074474 1.1217752046922382 0.8658345652281325
N 5.216977757234147 0.07274249365858822 1.2263552252929344
C 4.254054484822927 -0.9662701291373668 0.858895468676236
H 3.903992304487522 0.07875560728834582 -1.0299397637108985
H 3.613125743732925 1.4623460404269115 1.6897893992978588
H 4.678578840879589 1.9910889930905853 0.3442899873135837
H 5.520934377904368 0.07215597949863173 2.1935764872771992
H 3.6218752405605255 -1.3184290590231156 1.6730266135371732
H 4.6761203078573805 -1.829376076071465 0.33586904821494995