16

N 2.7949663274766907 -0.8094045100226068 -1.3048739799828015
C 2.4059776459195645 -0.035551555916472896 -0.1317173694638942
C 2.906056992467394 -0.6229513770492765 1.175680430296062
N 2.4658659047240414 0.0628096350455976 2.35931465063838
C 3.0942725845419514 -2.094702666953263 1.3201506993474676
C 4.2849194134197655 -1.1930598972697837 1.2313449761801556
H 2.712990516746755 -0.24890434214825896 -2.139105806713312
H 2.195556328415782 -1.6144133165031127 -1.4271401364735472
H 1.3093063818030113 0.09158124635089476 -0.04055323508537956
H 2.828565842670358 0.9675962372235896 -0.23385776035050374
H 1.4580818721250004 0.07361935978029674 2.4224162469050117
H 2.782454887648753 1.023182271855637 2.360635583391193
H 2.8960777246906986 -2.740833284990092 0.46825662371080407
H 2.837430428938598 -2.52346107637134 2.2857947499841558
H 4.846543939443946 -1.2106127301259406 0.31776733136081803
H 4.847139586014644 -1.0206042244897333 2.14368013390778