16

N 0.9150321227646415 0.04015419377074557 0.06563104222735708
C 2.3176271750062636 -0.2074003134652701 -0.26232837108444396
C 3.1871175025605507 -0.08823602678774423 0.9758244921359542
C 4.6298480042506895 -0.40954687536826745 0.712825266304039
C 5.584113283621817 0.6583900885818761 0.3315316534410334
N 5.6621646909326655 0.017764081174148974 1.6403160980135372
H 0.32640219005976584 -0.08987032370254351 -0.7385973874892766
H 0.7904258980495946 1.004281711071218 0.36519181250827365
H 2.713825759895561 0.4539469536226359 -1.0448816538091212
H 2.3933117828328863 -1.2261836851361678 -0.6501677499056996
H 2.7929631840047366 -0.753414126728874 1.7475553160456823
H 3.119734698631286 0.9338139440983293 1.3758027846369738
H 4.799738027710011 -1.4034354193580785 0.303011333540233
H 5.192954600999969 1.6686640303342735 0.27333240936754094
H 6.408612666535112 0.44229074831332643 -0.3332596569039689
H 5.262549531269299 0.6131539562617757 2.356607375952558