15

N 1.1263202517756135 0.3472818422995206 -0.34376151109285263
C 2.2372058341877836 -0.2933862345730744 0.3543833241506653
C 2.294143317732025 -0.12004160481247259 1.847471007360213
C 1.38688092089399 0.4918863520570329 2.5919953856500335
C 2.272947394398542 -1.7443365412754137 -0.06917361291435246
C 2.13875925738215 -2.7893533917468627 0.7279870758916851
H 1.095855477870204 1.3307940265117526 -0.13637939735211022
H 0.24590550402765884 -0.061050864166832454 -0.050089823592787554
H 3.1507783392899844 0.16143177038197074 -0.05035250000201755
H 3.1854555269944167 -0.528236971440496 2.318640341263879
H 0.48765590034589595 0.9082140091551402 2.1661433625996143
H 1.5153375473108721 0.592988032813905 3.662985959028961
H 2.3778659488701406 -1.8815094176022387 -1.1497007670682362
H 2.0081742353777554 -2.6821174176084925 1.7990439550032968
H 2.160648121432964 -3.804446275605222 0.32778278186526766