13

N 1.0489960164891448 -0.013208539841774704 -0.30991849499153806
C 2.4467666625666613 0.06613295081853689 0.09028474246866013
C 2.9479753380712634 1.4261723334472718 0.020704215533964784
C 3.3656949262467553 2.554527176414199 -0.05883223325139483
C 3.8873538393395353 3.871746788132522 -0.14843370644543186
C 3.1447243883782496 4.980608073863244 -0.24263563283481657
H 0.740259394848833 -0.9805726575193797 -0.3164166450858763
H 0.9415704233414564 0.3412713117952989 -1.252310122393195
H 3.121851614258759 -0.5706773294711982 -0.4916312494257448
H 2.5217959661379017 -0.28369971332850424 1.1307042569398107
H 4.975479971644143 3.956931447648227 -0.1338864202605496
H 2.067537077354509 4.934350870713162 -0.2640385158656611
H 3.6173790130323256 5.955249945792817 -0.31387831253265597