11

N 1.0957673873068183 -0.0002667487123770868 -0.06390193992435313
C 2.552250496209892 -0.018810644962679854 -0.00897805979227418
C 3.03952907425369 -0.9062457948470469 1.031008747928133
C 3.4444869965977496 -1.626218431837888 1.9182283027192455
C 3.913534718076945 -2.43554534879147 2.9115475171269996
C 4.316749007820834 -3.150689589786073 3.788167758926636
H 0.7936670987713167 0.6459318982539642 -0.7730796061101528
H 0.7174602570270123 0.3078447706697161 0.8252212227126927
H 3.0126367068867372 0.9699892328017683 0.15479970615694255
H 2.9326170069107773 -0.37159675744442855 -0.9695255559942603
H 4.682142299258244 -3.7859672713504913 4.5612239439600195