15

N 1.0311650214658494 -0.30226172782330524 -0.015835923055809623
C 2.4711517033445674 -0.14845243826320542 0.11089038067655928
C 3.0100722777382485 0.687862840025719 -1.0360161405145
C 4.527980169051772 0.9125736574767039 -0.9739479995406318
C 5.304845784044221 -0.31181202108269457 -1.1241762739443584
C 5.937874661328434 -1.317473854303499 -1.260025777382026
H 0.6621669800838653 -0.8095788337027471 0.7791337419330404
H 0.8052836985250021 -0.8462077069202938 -0.8371675041842254
H 3.027649195595933 -1.1001837394207656 0.145714714015847
H 2.6750761197521693 0.37159346461413245 1.048331243199653
H 2.5065056793300684 1.6552867348625715 -1.0417563669711005
H 2.762973154361375 0.19894145330078497 -1.9919652908880858
H 4.779762477755608 1.3803601548859625 -0.01688020166569004
H 4.821879333370537 1.6089008955129391 -1.7577470482798423
H 6.505994174873756 -2.2137288485525217 -1.3798384907485204