8

N 1.0235705354999256 -0.01263309026746395 0.010265665472444204
C 2.182432578782339 -0.0331585384782833 0.008786366485962054
C 3.5992899977448123 -0.04320995126221532 0.012417740448649291
C 4.303729114505933 -1.1516032221151484 0.2435356550648241
C 5.722881261401838 -1.1638502849357137 0.24819647691477592
N 6.8762039453446 -1.1960587049462201 0.2589837107360138
H 4.090014427443633 0.906986874787321 -0.1802678433849471
H 3.8088107438273844 -2.1032997969190843 0.4437724638316433