6

N 1.0085221887532871 0.07402076486380112 -0.061918074924021016
C 2.1591740544550193 0.07401801548948711 -0.06408457811846426
C 3.5222771813175258 0.07544558321286034 -0.06304482113994156
C 4.729949416909895 0.07920932917446487 -0.0634482964905333
C 6.093696941177359 0.0731814725931778 -0.060056368956844075
N 7.244424703776593 0.0721765091051114 -0.06377637871684583