12

N 1.010169891151393 0.13559631315921125 -0.09212916622569974
N 2.3923875979426192 0.0063516670897065045 -0.05677310742334705
C 3.236783433186853 1.062478732821955 -0.2017985964606421
C 4.523018927288255 0.5857819642839588 -0.1264711569391211
C 4.442788225807958 -0.8059576160866169 0.06738452325551507
C 3.1147918866290456 -1.14127994628605 0.10673549916974387
H 0.6208691672821088 -0.19757931283257615 0.7850550037444448
H 0.6405472167874229 -0.42295742699685773 -0.8477131123394954
H 2.8387343321234644 2.0561152002569543 -0.3496989564070059
H 5.42050041003635 1.1851795581687765 -0.20176260938586363
H 5.268741004253253 -1.498849767048346 0.17517099937584335
H 2.616287608655277 -2.088893655001947 0.23856269437808011