12

C -1.2746035475554596 0.05327267812020139 -0.4319572208432204
C -0.38925483301599506 -0.7549346952218046 0.5526526548455247
O -0.45169895416245115 0.38826831642488685 1.4536484086640538
C -0.3670088439217809 1.138657224909232 0.20653275420385853
C 1.0144605580359687 0.7272010914711311 -0.3215133746318268
C 1.0011777889713027 -0.5807453495152396 -0.07709721896029466
H -2.308923889351327 0.11602948298832166 -0.0951244275930651
H -1.1898709589289072 -0.144995967005071 -1.499050232603969
H -0.6755343036847525 -1.7023041263748884 1.0007028445577868
H -0.6425007824756788 2.183549655337091 0.2807821586967063
H 1.7680330216245912 1.3586563620203806 -0.7584572044209965
H 1.7416626090753213 -1.3424751018491747 -0.26127411587987187