14

C 0.22181693387368615 -0.12098606439096578 1.3885871034672816
C 0.29113414115274067 0.7708892142910015 0.14042518833815268
C -1.173504552777735 0.9779701811668169 -0.2340922669503796
C -1.6239451971909782 -0.5015406616841712 -0.11546534119385915
C -0.26458290190713857 -1.0770649621378918 0.293592010452931
O 0.6347687887672232 -0.4119483892008103 -0.632938392064567
H -0.4538764104560472 0.1483332666517486 2.2085967558136197
H 1.2179635619777633 -0.3878175481861286 1.7483699076815833
H 0.9897058476796897 1.5965229235561458 0.03948123497939609
H -1.2729918045675304 1.3616911596449954 -1.2480225477539317
H -1.69953034054215 1.6522669636237841 0.4542795909620598
H -1.9615510158708673 -0.9215028661276276 -1.0608169060959938
H -2.39963649144789 -0.6644298247119934 0.639719322704708
H -0.13737708730297427 -2.1609446789733826 0.33894095145765346