16

C 0.738343417643317 1.2809679848109354 -0.21705813769436838
C -0.7247480988058744 1.240626307400911 0.23702831281043654
C -1.3669412695171579 -0.05899382045317225 -0.22195096163367037
O -0.667707425454665 -1.1862193207317995 0.24111521060625776
C 0.6569007747680756 -1.2154400369026814 -0.23546378907320606
C 1.4489776354884072 -0.00018841004377088228 0.21593910293652116
H 1.2362171726382853 2.1645846949666225 0.1856522403159931
H 0.7684669200759329 1.3559203576994385 -1.3043547272517824
H -1.2752576672955902 2.084611339002496 -0.1666888264028224
H -0.7694726037183963 1.29571838874305 1.3221899702143203
H -1.424063015811076 -0.08401826469440932 -1.3156242697741694
H -2.382177847300677 -0.14734125593467873 0.17078747589779
H 0.6577232211761889 -1.2659757671682597 -1.3391487272123366
H 1.0987009869296889 -2.1367086519401584 0.13844121031016182
H 2.456951864644549 -0.044263500267835036 -0.19655740419596593
H 1.5370017664022748 -0.02462710218503474 1.3122709076048151