14

C 0.3798542309546943 1.3725316634981872 0.28775371356278173
C 1.3382205531996083 0.2918368831308379 -0.18897117384079662
O 0.9692921878812686 -0.9967060365364612 0.2957318976936084
C -0.3510759628312298 -1.2743543808603377 0.21344251020397284
C -1.314199414862828 -0.3878379539977717 -0.053130674471560356
C -1.0269835195144628 1.0740486603396304 -0.21576559655428612
H 0.7347909266741326 2.341927844455566 -0.061628211492266126
H 0.3981857379385553 1.3908767672104345 1.376155561078927
H 2.3510688320279676 0.463155017563233 0.15705762274558266
H 1.3421519931000676 0.2561600370602426 -1.289407044165647
H -0.5464351639341428 -2.3226431137586263 0.4017230495253583
H -2.332326172295582 -0.7519349828719529 -0.1042437524853852
H -1.7608405151407345 1.667440549406864 0.34494210578839063
H -1.133891949251103 1.3719393612046389 -1.2625144946068332