12

C 0.30289028339159335 1.3399900046649742 0.14323039275716004
C 1.3374500810134544 0.2740249924143681 -0.13901531995439745
O 0.9574138655828122 -0.9594473089941515 0.4337389895297803
C -0.36696731369487806 -1.220611777166932 0.2164890055237296
C -1.2427328625166325 -0.3125637731030061 -0.21884105559155792
O -0.9373328181753486 0.9937526300317678 -0.4360813915919528
H 0.6022144206560811 2.2971026277462365 -0.27988717390120565
H 0.18186792879960148 1.4604322170886836 1.2314696936884832
H 2.309086794936387 0.5389912535659622 0.2926687208750528
H 1.4559577808982385 0.15236560769161123 -1.220263322601497
H -0.642151979969196 -2.2470715110422157 0.41495008191604266
H -2.2769132779580064 -0.5601011785345473 -0.4233953664817192