14

C 0.9336485705380636 -0.01786921493194793 0.9753318836810395
C 0.34698203344769113 -1.0465795373208955 -0.03368800628049039
C 0.7468862346104833 -0.03659886413039261 -1.1367738115567727
C 0.31571709147661037 0.9568250289496728 -0.039549257420369695
O -1.0828039744869502 0.7163196523003104 0.08473324161368398
C -1.1335259189576297 -0.7167463429209834 0.0956882636522229
H 2.020838530949646 -0.019020783075995213 0.9731054531171964
H 0.5400424272312588 -0.006479073761048268 1.9929267690109407
H 0.6284126213373528 -2.0914083083989383 -0.05749258438681209
H 0.18041985087798 -0.022651643119633684 -2.070318436927608
H 1.8169006416032607 -0.02704776626506429 -1.3297023046813519
H 0.5131035062629529 2.0257247512059626 -0.06334971800257991
H -1.7415225465056 -1.0738180085208915 -0.7481071765468735
H -1.5834416579300616 -1.0656328579528243 1.028146387597544