14

C 0.7619807538203289 1.3234361083237012 -0.6268802056217249
C -0.3340898132565299 0.905641633101158 0.30261237596276236
C -1.350714114065926 -0.05742051999633054 -0.27334479526548333
O -0.5890248191330894 -1.0319967275228585 -0.9608138534183691
C 0.6421915178620377 -1.1969796855308024 -0.286896024514022
C 0.9691179829495679 0.16039630320097145 0.29628423707877977
H 1.2892415224984661 2.2380965832286073 -0.38332756698772924
H 0.6427760011524384 1.124675146737652 -1.6799727897439916
H -0.6214497716290561 1.540145536568477 1.1265340934353145
H -2.028686455193593 0.39438257582645087 -0.999263302884895
H -1.9442894329105485 -0.5062576938103522 0.5343974510880811
H 1.37308253336596 -1.5566958668499362 -1.0238933005256123
H 0.5674682558497979 -1.9392470849158843 0.5179407177320968
H 1.6670522928291487 0.22790308991213526 1.1162629516847675