16

C 1.0578645792364991 0.08567042887389176 -0.09036567803836587
C 2.5568115775601488 0.06328714069374165 -0.00555562888345295
C 3.355540054366741 -0.8800262264198604 -0.8474543931289934
C 3.4001305743516723 0.6067604886749767 -1.1135701247628556
C 4.646450913366997 1.3729184232382403 -0.8215962875141172
O 4.407645337625387 2.716143062208783 -0.4273050060112121
H 0.6087468376430102 -0.6919859562378173 0.5304747750821575
H 0.7271359294776122 -0.09648966513782264 -1.1196481373992597
H 0.6575306867085219 1.050260596740707 0.22532279141020264
H 2.952813691637525 0.2504193560189255 0.9875651095305401
H 2.826832882452199 -1.504197137272253 -1.5539260404258042
H 4.240374823811213 -1.3307606807636196 -0.42213779769680176
H 2.8597398982097695 0.9402908969333622 -1.9972532990400282
H 5.332772650733717 1.3389870710088994 -1.6796211001372192
H 5.168230328624587 0.9134479587721633 0.02370125777996739
H 3.940959711216132 3.1536671444640954 -1.1426043443504732