16

C 0.8923194397748427 -0.03777668460662626 0.02213515331444176
C 2.3955973584368904 0.0071310418738354114 0.13327257065635834
C 3.092217394491901 1.0655556666463912 1.0145323303210376
C 4.164148802570817 0.012169036162813741 1.3538065208460328
C 3.1416957227458817 -1.0579776662867928 0.9525648421774698
O 3.548503040798531 -2.2526628139820106 0.35710232682105736
H 0.4942392063958012 0.8398812112105627 -0.5040078796176558
H 0.4298246765683399 -0.054428526450937965 1.0177514662076532
H 0.5557976374339034 -0.9275902242474816 -0.511556090624553
H 2.8480597146361952 0.043448091826049785 -0.8704247987848281
H 2.4749274255735116 1.30545505374985 1.8859377726672073
H 3.407689524486673 1.9891717757599927 0.5492897901264628
H 4.578766403291563 -0.02075228507806876 2.357324657125375
H 4.98670295621748 0.04293260123675018 0.6364879176939817
H 2.537428806101337 -1.3478765145525382 1.8168545795349031
H 4.103051937433708 -2.0409119690248767 -0.4003157683740982