16

C 0.9445827267689142 0.11788131700187628 -0.2159646851989625
C 2.4029767261882444 0.0322506934757329 0.12579265109362525
C 2.7031397539744315 -0.1419190090572592 1.585072702027743
C 3.3157116166843585 -0.653202931068285 -0.8763520720023138
C 3.3554264801036355 0.8346688478782407 -0.7130940371918679
O 4.433116826175429 1.4315900571389322 -0.07187776009559095
H 0.41790065510441127 -0.7960293304049425 0.06528452207773877
H 0.7904260725509974 0.2672021548405399 -1.290466821839378
H 0.473387494709835 0.9467994383226779 0.3123766568087104
H 2.293696848189614 -1.0968617769989355 1.9479938569444837
H 2.2547089469694703 0.6658967642465563 2.1749316417204136
H 3.7805734606709778 -0.13691702123826274 1.77688554997431
H 2.879610013500133 -1.0698934479813558 -1.7754124731327898
H 4.157183916122656 -1.2090996166608012 -0.46836972220142936
H 2.910738151988435 1.4411776000030367 -1.4959734235464501
H 5.203542618661258 1.358928101658401 -0.6481926955609327