16

C 1.051809546087001 -0.07208475731600902 0.10997041288588807
C 2.5570984055141515 0.02433835490407065 0.1751892809022231
C 3.118962017445151 1.163057968931537 0.9908036187002407
C 4.505416660432239 0.6441483003125121 1.3400561314020771
C 4.2563649039692475 -0.8470227802164674 1.504500105888847
O 3.06357728774699 -1.1531360017002201 0.7930192270644388
H 0.6427744719758085 0.810746031184989 -0.3923967999999776
H 0.6344631827911211 -0.12234322125893263 1.1157586785344324
H 0.7420351491406405 -0.9555611372624421 -0.43835717817526537
H 2.962682815954045 0.0822949243296562 -0.8531967460999961
H 2.519024921102323 1.3028048948703441 1.8968782659309809
H 3.136007232896944 2.111761086306822 0.4543977704097755
H 4.936345543670833 1.1032575373414475 2.2371810298432266
H 5.198367958261761 0.8355376672148984 0.5107132068525052
H 4.118333123989579 -1.1166423969582622 2.5562051113043323
H 5.089162215930019 -1.4519097104802465 1.1104393853343695