14

C 1.0131968178745054 -0.1317226963537831 0.07728589940027104
C 2.3181366675347754 -0.03438148578842718 -0.1387616626456959
C 3.205877651367509 1.1771748528650996 -0.025210686776717256
C 4.401665264087003 0.7873151236656141 -0.8850058686389279
C 4.438219806875326 -0.7098960311530765 -0.6788994658646181
O 3.0690446695509332 -1.09887327568862 -0.5344103591132738
H 0.4548200681289739 0.7469873520285981 0.36883360101362794
H 0.4973331243423463 -1.0748001715170399 -0.02553091997709655
H 3.505376474245507 1.3142140587374689 1.0151759894542574
H 2.700644513756886 2.09280650221587 -0.34852092498343257
H 5.328400923918734 1.2763255998259646 -0.5825827559384221
H 4.214723012682589 1.0196547887651761 -1.9348240917102968
H 4.9828397056106395 -0.9836915532933281 0.23612969941024625
H 4.854552050019339 -1.2671108291837212 -1.51812132930102