12

C 1.1735038844168375 0.13618253234480723 0.09271490391913015
C 2.4701263423005257 0.0203720681272981 -0.14592952420266816
C 3.353139082036425 -1.2055740759238924 -0.14829757555270762
C 4.6837151032346425 -0.6082635069851953 -0.5001834978107337
C 4.520886188373421 0.6896200078324255 -0.6574871805610958
O 3.2359937192686483 1.1218083734616109 -0.4597219675216717
H 0.5837859381081237 -0.7427726841689042 0.33517106192294666
H 0.6777810604119193 1.103368175604819 0.061279015081877344
H 3.0094776819324323 -1.9389499222739988 -0.8762984143625333
H 3.3562555241904293 -1.7023460138164341 0.8309432708062765
H 5.612534347047552 -1.1462613229682466 -0.6127312143386632
H 5.2241338679719425 1.4746537656852277 -0.9045356695843529