16

C 0.9876201314233364 -0.11395350534288455 0.30562255041099373
C 2.457102888246831 0.0525185511381699 0.004870744473742918
C 2.737976763546912 0.0762840257137317 -1.481040406886117
C 3.186242683902715 1.141376398620981 0.8287728623922102
C 3.956354330319472 -0.029467830520845995 1.4332085841655249
O 3.235309181696737 -0.9885859327550083 0.6510543861441186
H 0.4107383378667879 0.7113678104358828 -0.11555490388825385
H 0.817497790718212 -0.14596132635815018 1.3757736119589137
H 0.622873117466481 -1.0449512032552977 -0.13214148480739918
H 2.221916476109559 0.907450893524717 -1.9625960554057706
H 2.395820731906295 -0.8486976252118642 -1.9469900547477994
H 3.806848758714164 0.17491649478295968 -1.6777720807753993
H 2.5521211473647365 1.6906324853564894 1.5159116830609227
H 3.7733136915977363 1.8372308896673044 0.24334607231860952
H 3.804202412980149 -0.191215955275086 2.509630387282065
H 5.033381108911619 -0.05301935375522252 1.223351407639886