14

C 1.0409590351235694 0.04707187984043601 0.2417317624171363
C 2.4774000188289858 0.08550784718949173 -0.20319223309739384
C 2.9831124675153293 -1.1835638802383428 -0.9147719821685343
C 3.711979037987515 -0.6031335102055673 -2.094289804210372
C 3.438904833082858 0.6947736097295986 -2.147948157702504
O 2.6535265387563363 1.1719196332522261 -1.1535015705561504
H 0.9045860585598217 -0.7292887284419074 1.0012735173328937
H 0.38060427546127745 -0.16888859965990988 -0.5924880586502088
H 0.7387294239201285 1.0091567273528825 0.6787861418785583
H 3.1318217532581887 0.32123747385321527 0.6415456834565928
H 2.154826730205552 -1.8234767891006736 -1.233467523762417
H 3.612877920704978 -1.7826671727839216 -0.2595232631675072
H 4.299127229208163 -1.1509603458794677 -2.8073107423982084
H 3.7487082702177226 1.4401212712458304 -2.87624338150473