12

C 0.9371221818889544 -0.0051129446102300405 -0.09308119114466538
C 2.427524974726187 -0.04301549355363989 -0.09634577028961888
C 3.278942464730468 1.0201164390458384 -0.08584416392054468
O 4.56363659557241 0.6076777795220938 -0.08242908049994295
C 4.542011212434056 -0.7396550605344593 -0.08595358707135929
C 3.2700146735790967 -1.1971032080905377 -0.09072127122922677
H 0.5630465803555205 1.0172374559981658 -0.10096171605768235
H 0.5216171973336114 -0.5060308316293599 0.7839268006515522
H 0.5266817556498579 -0.5121905577905885 -0.9716694342180517
H 3.1196232765868213 2.0786205673703613 -0.08879665368588897
H 5.5009414876097225 -1.2328336083121745 -0.08352803288765015
H 2.9539064889777094 -2.2343171397044723 -0.09379105456249459