16

C 1.0019091518418692 0.04849001620189637 -0.12761826992598727
C 2.5206055328240264 0.0766062283726363 -0.03433690031164109
C 3.097818590992315 1.1953416144542393 0.8239213681995421
C 4.496505057994495 0.675041421516308 1.129322120851816
O 4.405849214931204 -0.7410494076963404 1.113848257005292
C 3.1238297153252352 -1.134965568613471 0.6414805791256845
H 0.623709507467353 0.9571622641851529 -0.6019331548882472
H 0.5542073970402775 -0.01607524030081082 0.8621593421075554
H 0.6574160844306047 -0.8000008405594373 -0.7105594498335872
H 2.9409020061315605 0.16490348118623982 -1.0387562836505992
H 2.514222943348044 1.2868022103025287 1.750673436051296
H 3.100891338822958 2.170136572158614 0.33974663852624165
H 4.876235853267718 0.9971327514296051 2.100990381244678
H 5.208316462732454 0.990666445654631 0.3619342841033907
H 2.5001646490829446 -1.459209449292527 1.4780424338549438
H 3.2506059069676243 -1.9933238529872594 -0.03595746828202015