16

C 0.880439242684433 0.02242992671645315 0.18736912663499167
C 2.3862824104263134 -0.024016094156548245 0.10458991973093805
C 3.1982160251404013 1.0792378060673584 0.7942636324373249
C 4.215914558757229 0.008428287316075651 1.2401421060548494
O 5.289102752766074 -0.1592182144561379 0.33508190163484086
C 3.156989067691115 -1.0537034153728368 0.9553527643440826
H 0.4706822438683132 0.8734871154921747 -0.3539669559495546
H 0.5516520833614821 0.1002231371005302 1.2274823925114633
H 0.4236745068777997 -0.8885246640790964 -0.2238367690426363
H 2.6933160114308596 -0.11548466576973104 -0.9459674538252509
H 2.661969465713946 1.5003449549592078 1.657697188389229
H 3.585736642420445 1.900278771946618 0.1874549613988742
H 4.593764106587232 0.07971581910778891 2.269274822057259
H 5.8400730236771405 0.6308470932719639 0.37128343277652376
H 2.6006323666787514 -1.319301856490875 1.8657911397560254
H 3.5126294655540025 -1.9613425284516717 0.477850364970645