14

C 1.0505705083600028 0.17994297842905427 0.1730555482942413
C 2.5362021030520148 -0.0230924666732578 0.07751503736035234
C 3.1422624725407364 -0.7848075214315813 -1.0641864464665858
O 2.2751196485762564 -1.3196328818430214 -2.013924176955032
C 3.3432762528986095 0.6919281310580845 -0.9775994353597436
O 4.637414351378084 1.1341394176726338 -0.7119481977563935
H 0.578156821303799 -0.6674084179922625 0.663537453857065
H 0.6027906604449795 0.2745683548265733 -0.8138714300435854
H 0.8168223545471991 1.0828784140765344 0.7553308951965314
H 3.0567196069655322 -0.1709715112085476 1.0163368077282142
H 4.014943056188903 -1.3974617208750513 -0.8350405245881413
H 2.6927783992423926 -1.2629161355591547 -2.8700099119175033
H 2.7769150901720154 1.2916898313521108 -1.682913164169414
H 4.582223899302794 1.8735087338663572 -0.09070272434737797