12

C 0.9872693807859655 -0.04666898414568805 0.11173084407460449
C 2.4922935185824118 0.023213847359872808 0.08823841392905646
C 3.2211614718368455 1.0403188642690786 0.9772346195185327
O 3.881425510653043 -0.03369223028335428 1.6881008650347986
C 3.2471690727267895 -0.9905615117358186 0.9514879355822045
O 3.3210282480790165 -2.1654124592751964 1.0563881544265208
H 0.5481512599615272 0.7872268547897123 -0.4272927723550566
H 0.6145794990639771 -0.028619758147781213 1.1412621846431195
H 0.6357643767798753 -0.9755990275942734 -0.3458320014894235
H 2.871361870619391 0.007888296602915831 -0.9372703763267327
H 2.571924538819544 1.6031438095511126 1.6473385192782934
H 3.9421418319519073 1.6835719179102673 0.49104224797023016