12

C 0.9765287491358254 0.05457547589988042 -0.06273158954509483
C 2.2966796913841696 0.1104138259611796 0.07461410181525334
C 3.2495050428325873 -1.072341451404514 0.06785519792829539
O 4.562783710307311 -0.5204077652598125 0.25899951950915695
C 4.418189780862843 0.8139110661456677 0.3604447300277443
C 3.161765956351599 1.2619616661800768 0.26316893613494585
H 0.45410678725366194 -0.8896420936277857 -0.20475018757471972
H 0.37257429662211483 0.9535391641089686 -0.04484379117390851
H 3.2376099169287778 -1.6109473301364483 -0.8779004466128961
H 3.0583633056984625 -1.766746272334832 0.8835950521186268
H 5.340142406548129 1.3658988447681235 0.5033100974472325
H 2.83691813016296 2.288531096195916 0.3225714230236337