14

C 1.0977549604801957 -0.03856671149173893 -0.06042690431344058
C 2.594675191450653 -0.029061727493204584 0.09552851260498486
C 3.177258425093916 1.1481220513724297 0.871023323471089
O 4.265785750634307 0.6029114385244438 1.5771139320969478
C 4.287914767173816 -0.7868636429721986 1.3141702863942706
O 3.0116598379155177 -1.130475474194711 0.8865923883796473
H 0.7764307896717598 0.8270618085464996 -0.6476477935170567
H 0.6163338820247442 0.0005411334786482565 0.9242574907084301
H 0.7635873695961337 -0.9403592191297124 -0.5810607661974844
H 3.0767525437496777 -0.0957988768188984 -0.8907765408026384
H 2.4441371236533604 1.558419199689428 1.579767543444325
H 3.5174503443742022 1.9528816872954582 0.21003738936453745
H 4.51814884063895 -1.3279988718364635 2.231391486313765
H 5.036380098527639 -0.9988398122857542 0.5333971612145706