12

C 1.080560581368368 -0.15628038881520478 0.10039022345505456
C 2.38891537587687 -0.08419303461320989 -0.1150485589249401
C 3.2873661208642084 1.1200537361488154 -0.021059764629751378
O 4.573584885938715 0.6344109109181499 -0.35934224630961537
C 4.487887429597795 -0.7376049653296106 -0.6276386179546148
O 3.1511999581614982 -1.1379972918179109 -0.48132792648289824
H 0.5276156347703469 0.7251553450419143 0.38703889360772126
H 0.5530202775725362 -1.0993957088428647 -0.008907695907365544
H 3.293879732010355 1.5406992288046168 0.9910353911573825
H 2.991821543401912 1.9005369303593203 -0.7231360148639302
H 5.116606887303495 -1.3014334242630736 0.07090117096523388
H 4.812877855192061 -0.933866039860234 -1.6636638342513466