14

C 1.0238692936935723 -0.05958033448114538 -0.0713751521920124
C 2.495918859930302 0.1465959418279492 0.07132524070633305
O 3.342117371865357 -0.7364237381880975 -0.6626224229607062
C 3.338555070163297 0.6392643912764707 -1.0088838717894109
C 4.622855965152553 1.3815683655291138 -0.7591871148658357
O 4.441918324440733 2.7779850015682306 -0.784841458828087
H 0.6888860796002656 -0.9320584390920887 0.5075127324775427
H 0.7544071870569358 -0.2196866857289076 -1.1229508705356956
H 0.4822990694894485 0.8165163852814965 0.295788195071567
H 2.8453826921959933 0.329652140058941 1.083919811018316
H 2.851432836828469 0.8553814234975267 -1.9626353529699743
H 5.3798799366753896 1.051908657972704 -1.4831070626452718
H 4.985031778593851 1.126035318064805 0.2339532286824023
H 4.290293191850517 3.0502735093149473 -1.688144546752829