14

C 0.9291805174840204 0.09711082641273315 -0.23553712473927224
C 2.4180063989299008 -0.026228259289520967 -0.1455564819722075
O 2.9372486120259587 0.0897866736317009 1.1533159290686112
C 3.187120527259963 -0.8922675435069494 -1.1160157557477852
C 3.3112797244127163 0.6128775838522204 -1.1677069582897543
O 4.486239020007283 1.2186455958046096 -0.7411270678294996
H 0.4359680203816745 -0.7470969423337495 0.2602824644033548
H 0.5997098398397022 0.1061295386831781 -1.2796764506202576
H 0.5904612553478226 1.0115416422719632 0.2493814722214891
H 2.9204353977956514 -0.7691599052281447 1.5758065338999974
H 2.636154571883682 -1.4035847102190988 -1.8991676639160087
H 4.050423784024982 -1.42485358248819 -0.7214191915589929
H 2.850457160188598 1.1350982667747194 -1.9931897339840652
H 4.497384088178893 1.1241152989741348 0.21808733958037765