12

C 1.0222620752527456 -0.010416437809755711 -0.18008326968981414
C 2.327490767691293 0.0739793940429532 0.045748526095724086
O 3.1075309078181905 -1.0106322580413882 0.3146625170421176
C 4.4562259085269735 -0.6009729359458365 0.5036002321297989
C 4.431121115719288 0.8797984075511984 0.326103546325137
C 3.185324185325113 1.2538918351856387 0.05486747842489643
H 0.5075237187029391 -0.9618315668773946 -0.15625122200628633
H 0.4497433128579672 0.889339849084919 -0.381997242772398
H 5.097545372850814 -1.1096950928932445 -0.23039963757222426
H 4.791102833756593 -0.9024009183499446 1.499822647397036
H 5.30554268226704 1.5135673374821292 0.3979500908344636
H 2.8167318601940674 2.2595111102521237 -0.12155417223536984