16

C 0.8871141756001492 -0.08635367915149582 0.01285350489998719
C 2.3899863192740582 -0.07772944480766708 0.003425856207369871
O 2.8864154446209764 -0.16401797092590467 -1.3198352577749348
C 3.129218517691787 1.0136721562453181 0.8160548330178574
C 4.14685719944184 -0.05409106219986512 1.2564559824960968
C 3.1393697974314785 -1.139092683310385 0.8339507271145965
H 0.48290611581181947 0.7907305973132868 -0.5105394011484016
H 0.49653938268027414 -0.059482216664122387 1.0358747373610158
H 0.5021437386078984 -0.9837130938042936 -0.485946160563566
H 2.5811016916764906 0.6051291827786307 -1.8050701760642955
H 2.52174573575391 1.3699355690713324 1.6540785866922343
H 3.4987395746232446 1.8683122871875961 0.24234075623233545
H 4.465012876841052 -0.03590815799136244 2.3051705595509584
H 5.04091199739279 -0.053582839324270964 0.6209020354525147
H 2.5357437964580787 -1.4863337634435958 1.6750333043035905
H 3.5134707787002775 -1.9946857704532397 0.2743043107703025