16

C 3.4162457542025613 0.057915627505565774 -1.014668693432196
C 2.459934905872761 -0.0724373338213108 0.15998256248564255
C 3.0063835133771537 -0.9409219516829509 1.2600869504926802
C 2.0731441431425655 -1.3670568681337945 2.400942136053085
C 2.494771283575265 -2.790279908270576 2.013699549059703
O 3.193482295546811 -2.3069388423661685 0.8580774833313844
H 2.981492193331934 0.6766670550506554 -1.8085768256707233
H 3.646523386124997 -0.9217019155383811 -1.4318257964727743
H 4.356110857089005 0.5247294372734634 -0.7050721572691782
H 1.5030426516302489 -0.4935468094377949 -0.1658990500458378
H 2.239819237578668 0.9205780823306073 0.5873785503149815
H 3.9643316843161416 -0.5292838828332572 1.6199003001673136
H 1.0292946827973684 -1.1426686307125602 2.2128609330661777
H 2.3431354339785426 -1.0372401526020512 3.4016029855688648
H 1.6848958713758238 -3.481563391759957 1.746033327297751
H 3.1640209018031267 -3.2817801620541927 2.716118548630077