12

C 1.0569242850353104 -0.03042855671684868 0.10883398367821717
C 2.252984648280477 0.061859843452527 0.020235298016824187
C 3.6956139093467097 0.1897027071680043 -0.08442257850811646
C 4.3806077020443634 1.2362487884089706 0.8089264205105113
C 5.228124457895414 0.05202393108403432 1.2846847172060476
O 4.426494384942868 -0.8831013959594047 0.5408875302379019
H -0.00447558548399807 -0.12009251210193522 0.17773075918749742
H 3.9708777179015113 0.27865443052549915 -1.143135639228441
H 3.725869145044833 1.6470293087754553 1.5727357665274881
H 4.905415251866456 2.037818735122095 0.28757929706730767
H 5.215376177636239 -0.17089299828183263 2.355358934676527
H 6.266770777375015 0.05471823066542985 0.932298613290284