16

C 3.3065549117448527 0.5971618512101339 -1.2514013943340039
C 2.458077597739218 -0.04830546547393972 -0.16432976216966858
C 2.932882319003863 0.1410199928357248 1.2487618374942222
C 2.082619942007854 -0.5140930093692241 2.3022990542025155
C 4.341698873696423 0.4346028030947497 1.554113740538947
O 3.3620896805190745 1.464276543695528 1.585638019109286
H 2.8047982303852574 0.5382947471618557 -2.2127520745105724
H 4.275641302724774 0.09587760984806748 -1.3558775611706269
H 3.4868562859942007 1.6494848946717915 -1.0222537022348677
H 2.363461324709086 -1.1276290451321909 -0.3469294877420254
H 1.4341263190242983 0.3540687122212614 -0.21937765288644887
H 2.069398545086154 -1.6000471266762843 2.162688124990864
H 1.052027796847617 -0.1615350603460947 2.2331377737656535
H 2.4549162136003124 -0.28942622969839027 3.298719233786735
H 5.074410769630964 0.5135269530346032 0.7625334523512841
H 4.740113319629934 0.1464412388194233 2.531746442879303