14

C 0.9901183719847735 0.08038705517353908 -0.0038980966112039323
C 2.4650585206810716 -0.11902984461043843 0.06293018136670582
C 3.165474219764821 -0.9262461100007698 -0.7138687043151734
C 4.633435954476966 -1.0988658893683663 -0.6462528812273698
C 5.378139509763039 -1.1183626370296216 0.6096457313148782
O 5.123495536695804 -2.317099134318225 -0.10270294590008319
H 0.5179357355748956 -0.18135173015474218 0.9491148945626019
H 0.54527064104338 -0.5455610162776389 -0.7764777228480474
H 0.7384993245993277 1.1200751984447432 -0.20673913485870798
H 2.996120912378018 0.46814392102329677 0.8141703804159528
H 2.6588844865140335 -1.512676413334366 -1.4781517202885688
H 5.1819391120272735 -0.7932559000452742 -1.5418777650254527
H 4.832913762791981 -1.0173867066075255 1.543575383849908
H 6.416081281074948 -0.7970421576434344 0.6282924080699148