16

C 0.8800957353269471 0.11775696506108302 0.14259621537984699
C 2.3841042308182563 0.045805061969354875 -0.09465098606365865
C 3.0832614478765272 1.2670566143764768 0.48589555648595767
C 2.906896630083586 -1.267473559978402 0.4522409344401305
C 4.2086331024528025 -1.459892545406579 1.082422298113855
O 3.01918507440638 -1.3898846743691762 1.8591371763563194
H 0.4478688502346194 1.0169752567635066 -0.2978921344973541
H 0.6595099567215584 0.137442220026685 1.2199375093054337
H 0.3599950926115822 -0.7437636404574994 -0.2802503380075426
H 2.556203667165201 0.021288761918836982 -1.169792876936747
H 3.036351894086798 1.2569568171184027 1.5704336449099359
H 2.6055632667841264 2.1821145666248496 0.13285376447153702
H 4.135115489892332 1.3032982937718784 0.18424305663841725
H 2.4586510442640543 -2.1439545870978858 -0.024101999857544135
H 4.8852911311312095 -0.6145001047682742 1.1965350409968278
H 4.678993463511295 -2.431915635545899 1.033451597573768