18

C 1.0259077916779893 -0.05561719026062786 -0.04704768605496494
C 2.541764721539131 -0.02079540511171623 -0.05826988244500595
C 3.1036716540676452 1.1808987348939533 -0.8017093019697158
C 4.6216207436183625 1.2272889378518788 -0.8362394363164709
C 5.170031878975978 2.4276838758314274 -1.5671383980422362
O 6.575994370257939 2.4485669999366 -1.6409042547700645
H 0.6461915887948169 -0.9282762100536559 0.4969172961646859
H 0.6211952383396663 -0.08834753612831395 -1.0593861532952635
H 0.6103455312667078 0.8315014712311742 0.4330492206864741
H 2.932229504309674 -0.9357613319282654 -0.5162951544329366
H 2.9233790277932195 -0.01199704042329595 0.9664179177258337
H 2.720065060391959 2.1042103528196607 -0.3482698736823193
H 2.725409407148596 1.1810909497919477 -1.8332068312431196
H 5.012741437137494 0.321894356613116 -1.3036586311155705
H 4.9999228700236245 1.225009786659494 0.19849612495172753
H 4.7883997406315855 3.358003189355605 -1.0971565858915848
H 4.811947603514522 2.4343222369961697 -2.602640183243774
H 6.934506367418423 2.4393853619225205 -0.7483193177663721