10

C 0.9312667544514295 -0.21890344683331817 -0.09329581329767754
C 2.237654265066712 0.010103796866625155 0.032235592320163015
C 2.957094290808533 0.89928964034913 -0.7900935273785142
C 3.615845504171342 1.6489378812192366 -1.4747233792490948
C 4.349347825641821 2.5633089114306267 -2.3188189912520674
O 5.526392141510894 2.776399708469023 -2.2237121902643255
H 0.42807473221336917 -0.9048192427692414 0.5710671539801506
H 0.3409012173631976 0.28256285346358206 -0.8419041882523869
H 2.811492768180979 -0.5029174474240671 0.8028547349361559
H 3.722815507077695 3.06384193130513 -3.0875279296862996