14

C 2.770051476101769 1.151572990755706 0.7722693079513967
C 2.353700064650879 0.0813383314919514 0.12065799727489887
C 3.2058823456906893 -0.943710795807294 -0.5689067989956873
C 4.700490326127881 -0.7009894362809763 -0.4897754712292411
C 5.5313806957283385 -1.7356017554553562 -1.1841470597516865
O 5.095580539153257 -2.693839018674232 -1.76798542701946
H 2.0597355954963823 1.8311664623033905 1.2429201440242803
H 3.816903324845155 1.403089166382798 0.8812108582297926
H 1.2838817576160628 -0.10383990490764917 0.0522204442226875
H 2.9086259159092496 -1.0091635723878538 -1.6215310621052605
H 2.978638800037582 -1.9303565567252776 -0.16170981057923647
H 5.048147051425505 -0.6546162318876532 0.5503944620065837
H 4.98034235589304 0.2694226203951717 -0.9174396864951804
H 6.625126419527227 -1.5672074607591926 -1.1307656160710822