16

C 0.4966303278543769 -0.38855649472682025 0.09551179999855985
C 1.9503480788263696 -0.13817340957771038 -0.13718395096498298
C 2.943347284436862 -0.8622954379771633 0.35664224973936415
C 4.393629394670741 -0.6195181877897742 0.10358295750820988
C 4.980602935653555 -1.6894782832572228 -0.8131393177108481
O 4.376777830928065 -1.6906179815101523 -2.0896088633325043
H 0.0290239132868266 0.46219630516945664 0.5983278375899512
H 0.3397654100026968 -1.2742035732215593 0.7177659543855867
H -0.03908943155829238 -0.5355630876650227 -0.8496334728831072
H 2.1971788005218156 0.7338831138980872 -0.7499501470491529
H 2.707093059199267 -1.726262785331219 0.9836793840496258
H 4.958622311404592 -0.6183252260886705 1.0424654909827196
H 4.5353044009024055 0.36197918397704987 -0.36471180822282867
H 4.895877700613636 -2.671171720542794 -0.3345690653957023
H 6.043597543485197 -1.495540330800801 -0.9786609465776781
H 3.432801390309226 -1.6682485578435058 -1.9447351953714407