14

C 0.9215290561986142 -0.23047410531628096 0.1204605390857932
C 2.3835069170875527 -0.08602396666343791 -0.05801206598683732
C 3.0418949236734707 0.8203711602460357 -0.7810952234374248
C 2.4572799952824482 1.92831935051092 -1.5855861699910374
C 4.512367335952025 0.7118487669217497 -0.7687636781321253
O 5.258464700682436 1.4593990113126571 -1.3635561310116302
H 0.6554222563164649 -0.17106373552786772 1.1845635656880213
H 0.5845975813075742 -1.225352229663088 -0.20798005833242017
H 0.33913054786909785 0.5181322860025043 -0.41038037511920145
H 2.9910025136507286 -0.8224636991071795 0.4661911411022431
H 1.372758294958313 1.9532610259070224 -1.5464433346092619
H 2.775985995175783 1.84740304138425 -2.6322922109631626
H 2.8418740635284276 2.896364298740515 -1.235676524179412
H 4.909060833475454 -0.1188755948119002 -0.16124999754442407