14

C 0.8268478632417293 -0.02721792769294385 -0.1779592033295055
C 2.308186231165471 -0.11904096868780663 -0.039893833998284035
C 3.1317798049491574 -0.6134717703133634 -0.9634289841674555
C 4.594624577933462 -0.7111254113884133 -0.8420545838575416
C 5.260912147826044 -0.2351498806037381 0.43047191269213725
O 5.248552879683829 -1.1862474283277924 -1.7515677167858594
H 0.49821142067391866 1.0190307276966886 -0.07719982471469375
H 0.3330042874202243 -0.5806733255266452 0.6206638519546147
H 0.4861437798542797 -0.4077901549681833 -1.1415921752022873
H 2.7249924819503213 0.2401764632507011 0.8945437288883081
H 2.737410882155737 -0.9889834501653756 -1.910785016432766
H 4.882263817857612 -0.7782720898204998 1.2948132048755727
H 5.059404051647296 0.8304165120391487 0.5952054419844282
H 6.33067112546592 -0.3859534568371452 0.33511598970113077