18

C 0.7915750940033414 -0.612310162630955 0.23586722359697782
C 2.2027531405168537 -0.24117687312713604 -0.19351075267172782
C 2.5508346513840294 -0.9110770472959757 -1.5204401592267647
C 2.370453634991631 1.2717758827082206 -0.23403607551691688
C 3.7957662076419636 1.7507436161220884 -0.4753196077421892
O 3.923865825194364 3.15479697401693 -0.3469539822203795
H 0.6672145043959876 -1.6918479728886406 0.32277084785880666
H 0.057076492448012196 -0.24819022106138858 -0.49273256740366805
H 0.5368142413651369 -0.16546161104661902 1.2106530799909576
H 2.8982890481456893 -0.6346751833971728 0.5701276859166216
H 1.907472132346541 -0.5281128167998306 -2.3182655746212193
H 2.3863474819107755 -1.9915849347671704 -1.4564545668056914
H 3.585311033949241 -0.7456771743393363 -1.8143398496827174
H 2.0258677163767875 1.7054130986544596 0.707189929393738
H 1.7124849137650962 1.6777426574454541 -1.024833792028951
H 4.162902087708512 1.4230801084658184 -1.4555567061925265
H 4.459913713086844 1.3287535178331829 0.28634769241587127
H 3.3456224640876657 3.56491755503826 -0.9961501129813034