18

C 1.0478349430673577 0.09235105933430905 -0.0026537286362239287
C 2.5722616426391145 0.08084266061213335 -0.0634467746867567
C 3.053503657378893 -1.2290038002537327 -0.685890570973192
C 3.0716628682850926 1.262086113049141 -0.8872886717834817
C 3.0900557888790416 0.1972811397581308 1.3762103550517903
O 4.500990091674751 0.2086225351410703 1.4831987554987816
H 0.6214680017962884 0.03311141303819938 -1.0131460815436686
H 0.6850086472764685 1.0123175079194333 0.45741125993557946
H 0.661607411534082 -0.7537956916616813 0.5719400080369489
H 2.634541518335181 -1.3566696812276897 -1.6913294355659851
H 2.7391520388665858 -2.08832608897976 -0.0835842440395305
H 4.141644485483912 -1.2578115675383899 -0.7872114220895933
H 2.7448752832824144 1.1727398110140275 -1.9353683335982397
H 4.167119896564825 1.3134052891436243 -0.8725556671942085
H 2.687057917270984 2.200162812487184 -0.49797111170213654
H 2.6642927615675904 -0.6126116825202299 1.9808950779879413
H 2.756692293765914 1.145490575976953 1.7999444605766965
H 4.825776656940301 -0.6637550078355636 1.2709359377000513