16

C 0.9045544107848205 -0.029131113895905877 0.030155569601264216
C 2.434041701737683 -0.009783600233938535 -0.03318065609303892
C 2.9162418641736667 0.3278894340430126 -1.4357395573722633
C 2.9851771109304464 0.9754566559634321 0.9967489089468284
C 2.9063875051270025 -1.3899101448635605 0.369544213480579
O 3.576610653431527 -2.1266766829270565 -0.298529374860493
H 0.5065227626951592 0.9689021001769875 -0.17202096529819283
H 0.5539972926737509 -0.33204284197942247 1.030731627555899
H 0.48427851137233147 -0.7183564990563083 -0.7045009943109884
H 2.5667802366916526 1.3290817420201697 -1.720049518316102
H 2.5480704584303497 -0.38936375704513293 -2.1668573700472193
H 4.007279628970269 0.3207493573918103 -1.4849547357121597
H 2.5920272072898363 1.9759774436122608 0.8045868410533261
H 4.0705703974997745 1.013225857830042 0.9662022960595904
H 2.684204471759339 0.6927648421249918 2.010749879560389
H 2.577105027329002 -1.698146571914839 1.39059624994997