18

C 1.009787048977917 -0.04459169935625156 0.09510026395072653
C 2.5308900366393705 0.0723909250084949 0.001470239482082459
C 3.0034876403681863 -0.23621322862805036 -1.4169450649783855
C 2.9889802498647504 1.4455812920815287 0.4958444814212783
C 4.491892226800208 1.5611494124801135 0.6786943896271128
O 2.495903279500227 2.5029622466444756 -0.31271545111034726
H 0.6694631300294805 -1.028111937431252 -0.24195360577706856
H 0.5281869080081129 0.7098116937454201 -0.5193932140605837
H 0.6706896522556194 0.0921994079423 1.118533359348383
H 2.9763503563061997 -0.6712050013670808 0.6826878117618023
H 2.567270140233059 0.46177464002557794 -2.1340602062197975
H 2.698942313057593 -1.2360293104713207 -1.7110297887437445
H 4.091764622433212 -0.18135405418512898 -1.512556387158908
H 2.5101743836802215 1.6147340712337173 1.4729435531405177
H 5.0189614054372536 1.4516196755698116 -0.2658350439283631
H 4.869369962483598 0.7868597442172149 1.3569577112738815
H 4.743259749913316 2.538576761674292 1.097157550697
H 2.9874346762972945 2.4984677969188063 -1.1323925900235563