16

C 1.0279921512973154 0.06314787678199169 -0.13446515531421768
C 2.5251139653882935 -0.07642416654803315 0.11276926236500873
C 2.8401145571216846 -0.36249241754521655 1.5631797620691046
C 3.128774500439903 -1.1304885204015915 -0.809594728722067
C 2.9536878123831865 -0.9224184829974609 -2.2907139037628417
O 3.705147952279652 -2.0950336111877865 -0.3739885190453763
H 0.6076440274667956 0.8424639339276565 0.5078189368956714
H 0.5085996181838501 -0.8720278659139903 0.09718873087804383
H 0.7929891573927784 0.33312910164665327 -1.1663326260297404
H 3.002585319407193 0.8771721807119436 -0.1807430739882335
H 2.377882622125097 -1.2985266784411864 1.8861395081293193
H 2.459301965619239 0.44579386497665124 2.199429078730025
H 3.909731129379005 -0.45736450616646485 1.7349988917067969
H 3.003585857860833 0.12711207730123078 -2.5712329820425595
H 1.9774241811539934 -1.2949352847030446 -2.599579639404141
H 3.7142295106321033 -1.4883654168834264 -2.8238582488604647