16

C 0.9902008282492409 0.20581459995584925 0.06960993649448911
C 2.4783846578917847 -0.12008159182232728 0.15461690103221296
C 2.9335569165850433 -0.2406311355727195 1.5941582761954893
C 2.7942297625069688 -1.4051549776130643 -0.625244764269605
C 2.56644342204867 -1.2587182328168909 -2.097973908896675
O 1.9175743957530975 -2.0136209459911356 -2.7715892091620287
H 0.7742091471853922 1.1425467446478803 0.5944362377927517
H 0.39212014315673355 -0.5860021540129613 0.5251572538847418
H 0.6551459157107492 0.3178709651634564 -0.9618467180490199
H 3.0345139002336583 0.6974390489575821 -0.3144653991189338
H 2.4165721563257248 -1.0601869222527858 2.109255901296294
H 2.721975544754689 0.6828995092520277 2.152816203938625
H 4.007293736051597 -0.428113576242242 1.661238342894939
H 2.2215122085601307 -2.2476404951644047 -0.25312227038792395
H 3.8607649357834233 -1.6417149846236778 -0.48954620580305963
H 3.0592960646899794 -0.3717706176203221 -2.559580182765162