14

C 0.9274360981438826 -0.07082941004030283 0.05049025229769284
C 2.3732146772874803 -0.08922234174489595 0.06387148003618463
C 3.5741873951591416 -0.1114270008415617 0.09017203077694477
C 5.025543490356353 -0.12958234509001137 0.06355168123028873
C 5.584993626965495 -0.23483296777783574 -1.3511230861426102
O 6.9952943489931965 -0.3043318170373797 -1.3686256855213639
H 0.5433130581045473 0.4234694036820693 -0.8474481635418469
H 0.5321940834348889 0.47062940013713495 0.9176502391189981
H 0.510927383204687 -1.084865086205563 0.07715977561169561
H 5.403562551581962 -0.9840787825564562 0.6473647448155021
H 5.420926253724881 0.7725350814478369 0.544204488374425
H 5.2231515910646165 0.6105008707691857 -1.954514086204524
H 5.225829294775799 -1.1493087026257518 -1.8198453373028376
H 7.346684573220737 0.5331669851929715 -1.0609664540354202