16

C 0.9739791363398208 0.10230410168791136 0.13085377730194542
C 2.4594030117978694 -0.14512927044451998 0.005096352151228611
C 2.879492724637208 -1.52011884769078 -0.42123490283888176
C 2.0362462082980826 -2.5288227257732308 -0.6329080304931233
C 4.348414668943785 -1.7162304857685458 -0.6325332353674138
O 4.868646166504961 -0.889480075759753 -1.665211886248048
H 0.7729296734647394 1.1291188189439612 0.43690022904581943
H 0.5121146798554712 -0.5601000910829599 0.8698985894246011
H 0.46139808496177126 -0.06794095777639574 -0.825418479101529
H 2.9508991265373012 0.06531784592564105 0.9687019507592058
H 2.905364396764792 0.5666837551351545 -0.6915713265564315
H 0.9616714769057476 -2.4361579230157657 -0.4930456597520936
H 2.405990887921434 -3.5042604039004357 -0.9405533504315265
H 4.571097034953675 -2.775577013930908 -0.8270039225322475
H 4.904496242979211 -1.4286569161573253 0.2722252803607737
H 4.406576665148854 -1.1095024826863806 -2.475034326448827