16

C 3.055535396121923 1.3422036103667925 0.3139642754479899
C 2.640890912533308 -0.03645291709099153 -0.16305764525073546
C 3.1651766473579386 -1.1808064076923208 0.7252067606852028
C 2.6042065102696847 -2.522568101707636 0.2825474437777191
C 4.663179262808192 -1.2396496898939706 0.6463794369155675
O 5.41624472760063 -1.1512006746360837 1.569587494452683
H 2.657918622971027 2.1151838338733038 -0.3420518969126155
H 4.148689414691434 1.45704590948654 0.3274809060450722
H 2.7036039309932316 1.5387832886756276 1.3279395154653009
H 2.981843881331546 -0.20344715342220418 -1.1828981738708664
H 1.553648777039695 -0.11378121884041975 -0.19343390866566865
H 2.8981468675917093 -0.9867487568402808 1.764595381668527
H 2.910505079419933 -2.7690972496976745 -0.7376071345523758
H 1.5041228477125435 -2.5055775623469274 0.3018009527671189
H 2.9325310154589843 -3.3348088398362723 0.9334669243001804
H 5.0506230913373615 -1.3796233649573195 -0.3901307614541975