12

C 0.910076961022158 0.14777440244517387 0.06817254264581779
C 2.4280616444863616 0.0013378419441022796 0.0005524662197168165
C 2.9496640086477885 -1.0137772089104509 0.888370900908905
C 3.386420504657165 -1.8588422357354917 1.625527493821645
C 3.849251052542194 -2.8799381778420035 2.5319487624678345
O 5.01275999326345 -3.1923940955573915 2.6690769825162803
H 0.5701486817748901 0.9297504662308358 -0.6224158554339352
H 0.582859502964175 0.4202900450527383 1.0698968276154597
H 0.4137515887770626 -0.7782415394310693 -0.2073790830427447
H 2.9133727444529516 0.9578409051671727 0.24581673181905087
H 2.7381711098549606 -0.2390965667007649 -1.0212607313124462
H 3.048596249911705 -3.3845244924578193 3.1045707226116055