18

C 1.1936876467433564 -0.13818857254364603 -0.1406063473422551
C 2.709625239799805 -0.050088706561076536 -0.10073853707177424
C 3.242161134084285 0.8055328978752623 1.0372582406048008
C 4.75730002289542 0.8533916059976084 1.1155618481144474
C 5.23787713060752 1.8139046934567242 2.1961742814265124
O 5.310378822200349 -0.4406889498160608 1.306457746838257
H 0.8411022038500885 -0.7495474777983206 -0.9662702733150734
H 0.7442498097624394 0.8581720738540102 -0.25349329911370194
H 0.8019189275300488 -0.5694076189799072 0.7820737877563579
H 3.078568658634853 0.3540627950172931 -1.053266178345333
H 3.143523185918745 -1.060783543886128 -0.019591175144975586
H 2.8445367311108742 0.430940028538603 1.9928781559687947
H 2.856368812823302 1.8322246239805948 0.9294547703955367
H 5.150648552676497 1.1792436463015727 0.15042485313340176
H 4.854199400398211 1.5161884517026785 3.1763509076977936
H 4.896148733842568 2.8269056254930045 2.0002779156321284
H 6.328616638737294 1.8126310314561547 2.2434810555803257
H 5.04319364066326 -0.7490095031320247 2.17004917592499