16

C 1.2110034553937994 -0.06608841754413561 0.45003353871915885
C 2.690283040000334 -0.2140611576251144 0.16950926295507332
C 3.271173668668287 0.9786999216847017 -0.5479999914932259
C 4.746371675890676 0.8823258883511198 -0.8528012970833712
C 5.36385338387948 2.051829189152238 -1.5762642310851853
O 5.400213046869909 -0.08318224313733015 -0.5397413128371225
H 0.8170354897533012 -0.9398492906382551 0.9745764012295707
H 0.6420908156216069 0.0550048236182446 -0.4787273600609724
H 1.0059431561731396 0.8099640980027197 1.0788669098466026
H 2.8760957784210444 -1.1171954878555574 -0.4276271673206452
H 3.2446479260034455 -0.36332170185494356 1.1058005164307645
H 3.115082270327784 1.9012092217803684 0.02765707191417696
H 2.747193499332415 1.1604727124012928 -1.4997266378341294
H 4.865532321797598 2.209269367344375 -2.5291976474131834
H 6.433234904217139 1.864294922493891 -1.7404585704343192
H 5.239265531503869 2.962408316354213 -0.9886564212709664