12

C 0.9958902647976569 -0.04543793897684959 -0.008759657031417727
C 2.4997738622856946 -0.0911431795764035 -0.0011062460671756205
C 3.249231059144023 0.10291016340613308 -1.0915217380964843
C 3.2457744726809103 -0.3459061286099582 1.2691593358564381
O 2.4291889534562 -0.5321309123053736 2.329292292469207
O 4.442090759372979 -0.3917565750335482 1.3689842685182314
H 0.6393581850646792 0.9233611657188996 -0.3601147823938477
H 0.5829456964219262 -0.2194371742146697 0.9764956011021652
H 0.6021786786616483 -0.804727314877918 -0.6893759536154362
H 2.789446746414886 0.29623921979400064 -2.0532617356051133
H 4.324223891049323 0.06228703189733666 -1.027048305911881
H 3.0181257948954743 -0.685251028177975 3.0779004500302105