14

C 0.9553984672286333 0.026452015524851238 -0.13593375065043406
C 2.480786586590236 0.012831087819721955 -0.009205598179313778
C 2.945129719827906 0.5401652940240893 1.3410156016304358
C 2.9781452432442 -1.394598966354768 -0.24115241611200405
O 2.9127814582530407 -1.739373653236741 -1.5438535182927835
O 3.3658767267627345 -2.156625595309509 0.6015614598002145
H 0.5799868031216852 1.0449624454102064 -0.002055166485614576
H 0.4974960672438105 -0.6004794206553175 0.6320254241316083
H 0.6247697500113073 -0.32785381740576014 -1.1131161054791503
H 2.891156811009543 0.6234477216077062 -0.8096354919321036
H 2.560141506919054 -0.08935964841745576 2.152330890411838
H 2.5839879055412087 1.5565131238419294 1.4899474272050013
H 4.036527624988429 0.5363197461912367 1.4079430795260897
H 3.2167296051894683 -2.652517189123352 -1.6033781329799024