18

C -0.28423889852192147 1.3966165360194636 -0.7212485458007765
C 0.5925805458212495 0.5387017792754512 0.16504048394148746
C 1.9300971624545729 0.23022855955370222 -0.47356607389058153
O 2.6881893329551483 -0.5623665287540976 0.39517253774199157
C 3.9522067574994146 -0.8973627152121092 -0.13486581445430068
C 4.688962110048053 -1.7436881590166107 0.8648249199929869
H -1.2464508426853358 1.6144133631297974 -0.24610173084645498
H -0.5019184630485075 0.9049248546208644 -1.6756082433555053
H 0.19238981735196028 2.362819413868017 -0.9512826828506389
H 0.09358977274662586 -0.4072774060145481 0.3936893393069055
H 0.7785190236592096 1.0421039173662456 1.1232691987327732
H 2.4617835226310487 1.1685080520795512 -0.706463260665676
H 1.778951755627337 -0.28710725410677707 -1.437969860106475
H 4.520786852742235 0.021182618380092354 -0.35361651136644756
H 3.83562207239797 -1.428460485573446 -1.0861426073396303
H 4.823747691844344 -1.203303379795968 1.7999744497978143
H 5.6758794527373295 -2.0169339908871198 0.47845770877700244
H 4.142583070028106 -2.660937539511842 1.0734072393398504