10

C 0.9079224317677704 0.024813262947987382 -0.027692465041073845
C 2.242241754283261 0.04718370950820076 -0.0955045324691822
C 2.993326616052659 0.2247137464087349 1.1841341718126215
O 4.192639888688801 0.25963683967156304 1.2765819792954862
C 2.978698730941965 -0.08546136852206136 -1.305048420930348
C 3.62274104600136 -0.18333115019507834 -2.314440449498561
H 0.41144300848229604 0.12819162839494355 0.9328280265650712
H 0.284115327740837 -0.09136572054111902 -0.9110943103385536
H 2.336876822147851 0.316114332239594 2.0644927568666107
H 4.195037028270226 -0.2852027226968813 -3.207943545532718