12

C 1.7238245540007875 -0.7253495100351866 -0.3532886789828391
C 2.992141354034502 -0.39383016796524956 -0.18565704857403362
C 3.3826627544127406 0.8237468734195419 0.5632481961597661
O 2.562375724434957 1.5606877710340687 1.0633487149186815
C 4.842093912786351 1.0893469187747133 0.6739855570111113
C 5.310081925948333 2.1481812375250926 1.3256687170847572
H 1.4305561620066694 -1.6113248495657497 -0.9020317397352311
H 0.9393797125145789 -0.10755509702369621 0.07429219154995441
H 3.7891604294826613 -0.9988266994055017 -0.6072794688678196
H 5.520121006975953 0.3811422734729114 0.20020426627077348
H 4.609312468487767 2.84252646315252 1.7933098138083579
H 6.363524017340522 2.349536732594297 1.414460377493867