14

C 0.29776588309778285 0.22975853528525186 0.004746680634761661
C 1.7642693581219568 0.12419540935814541 0.21989143198161556
C 2.6407917113743693 0.050630069470567696 -0.771283736788879
O 3.9849062555749284 -0.04683412219535041 -0.5434541793043508
C 4.807292824745728 -0.1260148289094384 -1.6059227125323778
C 6.119913313991036 -0.21637071583950632 -1.4813781364081104
H -0.23151669982459006 -0.6108292751025945 0.4701407399689716
H 0.049993891036515394 0.22994792621816407 -1.0591717811503563
H -0.10797712905538412 1.1392062691281717 0.44477764844871337
H 2.139384058411748 0.11721870769703957 1.238468436919254
H 2.3520245750557485 0.05117134506315135 -1.8173382324875982
H 4.314957064182865 -0.1069333553763115 -2.5751486652450226
H 6.599800292408244 -0.22939976737348694 -0.5133952006285379
H 6.7386605556182175 -0.27951992410779525 -2.365685496986554