12

C 0.9953998147092038 -0.9384310559793448 0.7952358520944621
C 1.8407624694254554 0.047407036617610684 0.5333375606018665
C 2.4799246717803807 0.24609158294397857 -0.8031283621415277
O 3.9091865763216807 0.2491738047601298 -0.6942058533224137
C 4.518356521257611 -0.9251923318459929 -0.8548479722448077
O 3.999107350653073 -1.9619252291816667 -1.122379909686199
H 0.531703346787862 -1.0316246806983451 1.7724959704610517
H 0.7358100569266511 -1.6801857560323643 0.04907071971058568
H 2.096342583898562 0.7744365785911573 1.2915695529368545
H 2.23259871582872 1.2352238982255916 -1.213716780030277
H 2.17026504588189 -0.5290064827192305 -1.5041875783965883
H 5.603380641345599 -0.779365096430229 -0.7249871407445064