12

C 0.5999689085535599 -0.25141583324418476 -0.4958931418585088
C 1.923022816550634 0.11965445198594264 0.05238141725107684
C 2.9278537513054967 -0.7370555478762892 0.16618794839895917
O 4.1353599605030125 -0.3132255850417694 0.690337008872956
C 5.129595377089886 -1.2069297599087894 0.7845003143362611
O 5.079393136667693 -2.355516134619116 0.45845159829554516
H -0.19674310166422557 -0.07898000470640235 0.23385759253729205
H 0.5661305400121286 -1.3047745125264294 -0.8005715379229573
H 0.35220723227362993 0.35656579852412407 -1.3802156815009332
H 2.080302732695882 1.146135629490904 0.3858381363136465
H 2.904357813505918 -1.7761327241558647 -0.1296216657417271
H 6.002679489568819 -0.7128865035232493 1.217950648788758