12

C 0.4604191005885445 0.808608458743196 -1.1154916145540072
C 1.800218847032103 0.5405114837724864 -0.497011630746695
C 2.9070884886674446 0.2987831676826004 -1.1869996706498642
O 1.688070830787871 0.5697948267824583 0.8827653486506587
C 2.7033284257319563 0.35976063479729287 1.7372452215629328
O 3.834463422454616 0.12483422619969921 1.4909287339078738
H 0.4929198391359991 1.7059120126330376 -1.7408322070946702
H -0.2847446694824089 0.9737080716455904 -0.33759930911246133
H 0.134066966025006 -0.021423920888253623 -1.7306558728483643
H 2.831366530338668 0.3085542930665267 -2.2654597223094517
H 3.8566322439413594 0.1043650032530192 -0.7333611724005166
H 2.2863256844489586 0.44884332636867247 2.761570104889399