14

C 0.7738328975287749 -0.14975953339925013 0.5131170490370525
C 2.23867754438019 0.0460406455091146 0.16822799206694944
C 3.1120677377805093 -1.112967339902418 0.553601050579446
O 2.3754411639528077 0.19225833518563296 -1.2671546265393372
C 2.1766860098739613 1.4065218934093378 -1.7762160832023284
O 1.892041639657165 2.401049973619027 -1.167042176625855
H 0.66399435518306 -0.2759047413253512 1.5861611714643644
H 0.3847814835990497 -1.0506522223023576 0.02382755190857547
H 0.18696606433561874 0.704340697147856 0.19951626898444458
H 2.5966629941321666 0.9728578497521906 0.6261143972260123
H 2.777433940213296 -2.036618073958885 0.0649500848798646
H 3.06767767614734 -1.2685474733015172 1.6399730921984605
H 4.150772287919126 -0.9376943924497942 0.2756530403125477
H 2.3182464558080724 1.3738383013915771 -2.862540977202911