14

C 0.990055717959015 0.04893951568281564 0.35086864686442554
C 2.3245271983585005 0.0402232346850867 -0.3854954611512339
C 2.6725566511885077 -1.3195556971143216 -0.9542159128950555
O 3.951376874876649 -1.3634297948431642 -1.544328912055149
C 2.3218709195614986 1.1050489642642258 -1.4448686708952876
O 2.63039305469369 0.9339966560676801 -2.596362479637691
H 1.0234274339237373 -0.6369473352123395 1.2098288302940072
H 0.17713794421068593 -0.2759268262059627 -0.29950235385137575
H 0.7413643415843293 1.0369437307363938 0.7322517528964004
H 3.116564901456852 0.34215422563631964 0.32410054918244163
H 1.8954329535733339 -1.6244386465885967 -1.6690401029909747
H 2.6731560074267837 -2.0631895434788876 -0.15522001451157708
H 3.9061633528030226 -0.7810720480646892 -2.30599047451377
H 1.9959174551001044 2.1194022607411465 -1.0959798552175493