14

C 1.0409614885771914 -0.05197636583526753 -0.33594691125612913
C 2.492371121367818 -0.23857674203959375 0.04643508382305092
C 2.703912880691053 -0.506162942555789 1.5137048661906396
O 1.8067975242048087 -0.5753917849649686 2.31133828762197
C 4.125867644716719 -0.7094071248908838 1.9968652283453532
O 4.1679584416041795 -0.9487863912981368 3.3606973816818293
H 0.9430944962429726 0.13556152266302515 -1.4000296091553466
H 0.5974060949433687 0.7820387689429766 0.20538629464247288
H 0.45622096159737796 -0.9430262425875006 -0.09011042266294562
H 3.0921907971327665 0.6430031004000676 -0.2146712890897994
H 2.9510840598524553 -1.0600981037284183 -0.5057727024311043
H 4.712223114655831 0.18664265093610846 1.7363769031083844
H 4.571344706112363 -1.544875120535406 1.4335744663894092
H 3.2410794605380495 -0.9162264337980978 3.6560395185369314