14

C 1.006661457586597 0.06371429840924354 -0.35225798991914686
C 2.473396641805796 -0.08779657568317681 -0.018705619695544018
C 2.7548634597065815 -1.1657034272622935 1.0319036467753484
O 2.133093091007332 -0.8820091274516474 2.244620807105942
C 2.3573788865794505 -2.526720800854684 0.5383087529306082
O 1.6343573517113703 -3.247763783817201 1.167120617380298
H 0.848646981800276 0.8764363582134946 -1.061781421915437
H 0.4338192207814387 0.28188641174944357 0.5561048243720937
H 0.5897062561639395 -0.8417711279793789 -0.7925663612598229
H 2.878393678822018 0.8466455863981514 0.36230316914771843
H 3.052518974660358 -0.32885938545842 -0.9215524442889282
H 3.85612180016429 -1.2175243369789996 1.1706076538153747
H 1.6393962442663483 -1.677930745609613 2.487664060775211
H 2.7927656832390326 -2.84106112426777 -0.42565936870532595