14

C 1.141909656130997 -1.3469607973037523 0.21567487080421288
C 2.41826983410266 -0.5421198702507258 0.11408621890203714
C 2.130619041904987 0.9312764280620407 -0.08070128684876834
O 3.3336713777873315 1.6920968330712332 -0.2600033145466254
C 3.9362345438989492 2.127050502569157 0.8445737703923446
O 3.5631305423428357 1.9529800556277777 1.976842591419426
H 1.3516794032815973 -2.402219171487471 0.3492231350351661
H 0.5347366751447022 -1.2456425074023003 -0.6914555764706474
H 0.525303847857705 -1.0208529844309033 1.0644939850568809
H 3.027604753432177 -0.8967077817501545 -0.7193867605097373
H 3.019668359617942 -0.6627856780590821 1.0241500510102295
H 1.577480832034384 1.3392161220133794 0.762905210218734
H 1.5645960162610701 1.096295207495255 -1.002700129033397
H 4.8404279546302265 2.6890412830591583 0.5749774349357261