16

C 1.626133848179748 1.1935483755611749 0.07524925998136758
C 2.8607179375148446 0.44901604577706605 -0.38361072503637245
O 3.736511615437607 0.3073366738466207 0.7182808323209806
C 4.895290066573195 -0.37046325272527153 0.3913309287097015
C 5.572526292873836 -1.0914488721176105 1.4895609057486963
C 4.895775478329707 -1.863549950883011 0.3833907943134904
H 0.9396563333183133 1.325454767632461 -0.7624041691895729
H 1.9040472022241144 2.1787204769182558 0.45791633501296186
H 1.114120442411098 0.645825584208735 0.8604592773221531
H 3.365725637191177 0.9922561252692198 -1.1906724942812061
H 2.586039232360239 -0.5379238315887566 -0.7798471917123421
H 5.517245153053374 0.14387144024011045 -0.34418448032376836
H 5.080585577735346 -1.0791444004838064 2.454931497556722
H 6.657307361823299 -1.0750964358482684 1.5311553973726513
H 3.962328554385116 -2.3500657270528422 0.6359079437237022
H 5.5169601371999315 -2.3894270564458275 -0.34375673726725636