14

C 1.612886503207699 -0.1910515331926603 1.17345844524912
C 1.6362201908461693 0.6522393981781263 -0.07396364112939297
O 0.7408767786442717 0.6136742788054643 -0.882495613325788
C 2.8248480831347 1.5310515003810685 -0.2525846250884187
C 3.298636481850791 1.7656416338171597 -1.6640235739046059
C 2.610109613704736 2.8535632659578636 -0.9425565606290864
H 0.699846219813989 -0.7889877890588576 1.20933629265728
H 1.6617029111519805 0.4537077545075564 2.065703722224073
H 2.490882812108313 -0.8394478719504996 1.2055048121282959
H 3.5774217031394433 1.4952688031591896 0.5345679381733269
H 2.7420518039132364 1.241254049779775 -2.4332239726626472
H 4.3744299012825865 1.8283031724973704 -1.8169637879108922
H 1.5876734562827095 3.0660191365291904 -1.234469100268242
H 3.182396140672249 3.6940860724857796 -0.5807752347338083