12

C 0.9849829771597615 -0.05779646680112781 0.14710381123228175
C 2.456766579965509 0.004342057482649273 -0.1510217719150369
O 3.1843094050905734 0.8456220960101505 0.2980156628022272
C 2.9716373696981457 -1.0649669672853435 -1.0758237472046461
C 3.9073171886454476 -0.670445914023557 -2.1441185459764665
O 4.343159169002817 -1.3696246947539985 -1.0003401312169715
H 0.6852143395827192 0.8226281781924899 0.7197725178201129
H 0.7570935203707984 -0.9662881166196251 0.7295474397335601
H 0.407428462066118 -0.11988243850553848 -0.7728089898236353
H 2.3205585637700197 -1.9246173852044115 -1.2457586616189729
H 4.210877874561385 0.3693427174814402 -2.192208437453018
H 3.9120650796327356 -1.2362628724491185 -3.0725798359493375