12

C 1.0550841745198365 -0.10685102408393252 0.35960334378529607
C 2.3990385315686 0.2745679841408562 -0.2002012724841115
O 2.6939147589114167 0.12105495911143829 -1.3499984844827744
C 3.3993606772584575 0.9374934877322506 0.746126145278359
C 3.315766726964656 0.55849536085758 2.146890635573754
C 3.245836507098061 0.23126218145284153 3.300790963036824
H 0.3920516055215906 -0.4132776977043401 -0.43669609204604803
H 0.6291965028988614 0.7353697999589379 0.9248421304755069
H 1.1848071686700263 -0.9225656194914567 1.0779739407222795
H 3.236180884816864 2.019590375767868 0.6540401181407125
H 4.3989560524922195 0.7376363618714044 0.3521412023202294
H 3.1880268015341073 -0.06302718004471225 4.316507817511573