14

C 0.9269503297990637 0.008578170100367023 0.15485988680077736
C 2.4419997427464066 0.07683681658261306 0.038085312904013145
O 2.8448846134643926 0.5967515328144707 -1.201822658472787
C 3.04393319095077 0.8659409388506054 1.2118633571193527
C 4.497277826340849 0.8851248255348735 1.218683352039625
C 5.697708282638171 0.8859644710348554 1.2348755868396941
H 0.5209816016342189 -0.5442626777901209 -0.7008786450574
H 0.49541103373920986 1.01269174863203 0.15392055700492535
H 0.6141090417891305 -0.48529047865724756 1.068528579359749
H 2.8538947655161264 -0.9423513674652427 0.06136937752244236
H 2.512199390756278 1.4922704917167586 -1.289245683152254
H 2.6812303389524423 0.43372104554442686 2.147771248066408
H 2.661174124626726 1.8969422922152421 1.1727990077386803
H 6.758130375032234 0.8985667879843499 1.235495196197474