16

C 1.0828206957371658 -0.06452404256615703 -0.048558481337682716
C 2.5862738945192643 -0.048100557022758464 -0.10458793566838787
O 3.076701793435851 0.804083489954187 0.897429247269609
C 4.484001024549739 0.8747207163258532 0.9277571941696782
C 4.862650359264429 1.718238461429172 2.127244356078575
O 4.412469789633987 1.1536188661607796 3.3305435522250217
H 0.6802803012381519 -0.7184683886172953 -0.8277458850155869
H 0.6880361473339084 0.938688459857699 -0.20373576079525527
H 0.7389241032752863 -0.4259456610526911 0.9229304421294016
H 2.93446392160795 0.30050841709797294 -1.0878969905593117
H 2.9986200331529993 -1.063035821308878 0.036612604030925706
H 4.8734954286453425 1.3298078662606316 0.003965410494589983
H 4.908817818534267 -0.12788075393550635 1.0390969316246008
H 4.462407718018398 2.737427759313707 1.9923112602474786
H 5.950593611721875 1.7910547364841505 2.189439213385932
H 3.4770315683456485 0.9592154423641575 3.206262117576012