14

C 1.0617613467726386 0.23677960015525942 0.13356263442334274
C 2.505489447146363 -0.20582643139389256 -0.04413813956379738
O 2.6815287189867902 -1.508690487416767 0.4284589153685344
C 2.955664243289267 -0.11500248627638272 -1.4857982161026384
C 2.8485309441607605 1.2048905543823085 -2.198443538608605
O 3.3967914815636138 -1.1019115980255536 -2.0370768734076248
H 0.7813235264931978 0.10345489566936028 1.1794276336020284
H 0.39917804336906576 -0.3816402545728466 -0.4727492810596254
H 0.9266564385889513 1.2827313182117568 -0.12891741580107893
H 3.1571741732177525 0.4776419663237313 0.5244857834014746
H 3.084209005634095 -1.9981456023949788 -0.3083872600623207
H 1.8254579653649805 1.3377509456177195 -2.536060527022133
H 3.5111737668508702 1.2130367567910842 -3.060000470764373
H 3.085156253763742 2.03015334825264 -1.5327356591023018