14

C 0.9185000551329298 0.12088750508010171 0.0074785695828208975
C 2.416031845651648 -0.11604630002254317 0.06694303790196252
O 2.839007496532167 -0.4400043496731794 1.3798643571929456
C 2.859466859449609 -1.183609592808684 -0.9245001306049618
C 4.357863147499392 -1.3419826772249241 -0.987516379820883
O 4.988658346880356 -1.4164669527421496 -2.009576823598153
H 0.6245200241592965 0.8794776117570501 0.7287940705014483
H 0.3738617389125146 -0.8016594593439478 0.22559000648418878
H 0.6199210898659414 0.4593625077659361 -0.9883183986690699
H 2.9342036132728953 0.8198000776382549 -0.16259539072523777
H 2.2992074295716622 -1.1578648673778893 1.7021402460163828
H 2.4975465324447073 -0.977712638256003 -1.936531830961057
H 2.442269013470228 -2.150372750902539 -0.616887942603728
H 4.860871172574852 -1.3885506637562632 -0.003512317315690707