14

C 2.612923150964672 0.9896541421590096 0.1239652844425594
O 2.119980634754277 -0.2989393196409901 -0.1433141146839056
C 2.739927378820169 -1.2767421953201394 0.6121583716165285
C 2.757941985344668 -2.663374546567643 0.06688095060157177
C 4.026528420324004 -1.8601303947220111 0.15561471866282192
O 4.976081559126542 -2.1674397327331683 1.1284883257548892
H 2.073441987753963 1.6873441902946615 -0.5136926918771247
H 3.6904858200263972 1.0595100778621072 -0.07423349779294912
H 2.4409329857391318 1.2648852168162306 1.1768097771009165
H 2.6348717994024478 -1.1667783374506504 1.6913916178624704
H 2.327829617255104 -2.804584942127061 -0.9146721059098203
H 2.6166050026187375 -3.4730068904276 0.7666335735761013
H 4.419554155462067 -1.4745345897832876 -0.7830567722733455
H 5.381555036882311 -3.001802165553409 0.8979471688179781