16

C 1.164457141104249 -0.05354734958967701 0.5011743932364804
O 2.556559348973229 0.059192545006394814 0.510690122395954
C 3.0002329871704125 1.296935130992995 -0.001835354666334911
C 4.488533180350535 1.3298711949036677 -0.008824413168971822
C 5.185781952841219 2.658556836881162 0.08867685316558055
C 5.22807184371661 1.7017881524784515 1.245640734696498
H 0.9036269626389248 -1.0254092541557585 0.9115710973458548
H 0.7485532369252085 0.03541745478004934 -0.514219282037033
H 0.6899895492308612 0.7207002332667336 1.1223311083912861
H 2.609151618525463 2.125088557022003 0.6148273288116951
H 2.608734217387721 1.4319858380202934 -1.0171607761183017
H 4.955378195613783 0.5882775611657959 -0.6438942727410901
H 4.56362945022241 3.5470184205345596 0.1904335645858056
H 6.083626997515486 2.8047891626100587 -0.4920468323080316
H 4.630269167613153 1.935570923962977 2.118205032197521
H 6.161897607387367 1.1909402357908345 1.4498825685929038