14

C 1.6980643384825085 0.301031528791617 0.8859066952538318
O 3.0302429543341853 0.6531044528562249 0.6082028381789382
C 3.3724555890108845 0.426226889099751 -0.7276793880238079
C 4.782173051815372 0.9063293294771962 -0.9347693050436123
C 5.9108678244917225 -0.012780164927348122 -0.8759076793734398
O 5.403440248616426 0.4473604042942565 -2.1187220790014956
H 1.5109840341505096 0.5051124323907089 1.938942703734242
H 1.5193214412258844 -0.7753214401852258 0.6993037196073314
H 0.9983501029298705 0.8789414879382508 0.2769496128780534
H 2.698170071118195 0.9659463416369239 -1.4019563638639783
H 3.316178089274556 -0.6464579997138724 -0.9857231667423203
H 4.949974601681754 1.9513641405026778 -0.7036884321798376
H 5.7301791021863435 -1.0645099352290952 -0.6562909737540198
H 6.900158748077008 0.36108626222564416 -0.6130961908672597