12

C 0.9131066830583539 -0.4850451053853809 0.2778988095549901
O 2.2970173156176843 -0.20455842804526694 0.16249088182244587
C 2.957743520357052 -0.957630703902801 -0.7299110299110747
C 4.269816619055841 -0.7899410889114261 -0.9380413164729167
C 4.985784530282662 -1.5849843917430675 -1.86958297377003
C 5.618535865230617 -2.232332757181341 -2.652378685371483
H 0.513951346547532 0.20719852913404238 1.0253210608440928
H 0.749047603280453 -1.5089073784572542 0.6153428041589237
H 0.39745925793756687 -0.3155800556555043 -0.6728435520817883
H 2.387958044310109 -1.7072830793277225 -1.2581854526030292
H 4.811903521158584 -0.032416104483422845 -0.3813204365739528
H 6.184425422078609 -2.81788571993648 -3.3470242305801774