12

C 2.9757215318580035 -0.7600230022305013 -0.8697750467759175
O 2.270252583591957 -0.14770727577065015 0.18474695900318544
C 2.9798030935827224 0.4336897358236168 1.1853248370364495
C 2.3334615160523136 1.0229606456987512 2.2071520483893967
C 4.407027134321393 0.39781478311129254 1.1279437217635044
C 5.605796548777683 0.36618435610043404 1.081407948958558
H 2.2127702700100738 -1.148321149026001 -1.543752534535877
H 3.60216415307645 -1.5902627586790854 -0.5105235172962606
H 3.59899511309172 -0.0486369249548225 -1.4045189131094846
H 1.2601274649725136 1.036669130508991 2.233397410584872
H 2.9029580171475917 1.4789521306957878 2.998525733625571
H 6.666766151167123 0.3436128244463103 1.0472976584658624