18

C 2.530972166445542 -0.7358367968636872 -1.0402423568811365
O 2.24865266426665 -0.0492812957506711 0.15363773456568514
C 2.837153787218115 -0.5595815321213814 1.3501018212988858
C 2.3303269572744116 0.3894457290439005 2.4216306353262893
C 2.3492665313530128 -1.9789343941057758 1.6431254382612541
C 4.3554244987238695 -0.5096311537451328 1.283201554044751
H 2.0062744593136217 -0.20482146865912018 -1.8307897507163904
H 2.1773018235348407 -1.7692751055400984 -1.0352535307548005
H 3.6049393061841184 -0.7288160778680672 -1.292659188686391
H 1.2478361213208093 0.38260149005419214 2.4615738161638023
H 2.6588225533734997 1.4122366283195291 2.2004905746500922
H 2.7232291220129525 0.11147261709071275 3.4013173884612082
H 1.2647409195778125 -2.0084218012373207 1.6318796334359047
H 2.702644860925569 -2.294813779577663 2.626419174240848
H 2.7357966038326476 -2.6972358083439008 0.909160297170649
H 4.696967693379978 0.4922136990354908 1.0144012217979472
H 4.751819918012035 -1.2165425028749242 0.549521182571823
H 4.791456797162788 -0.7767157781997827 2.2523324220029335