14

C 2.2943970977140427 -0.5526480482972645 -1.041232093134037
O 2.1276462499710664 0.16318653498932192 0.1567476979615169
C 2.7257343417587014 1.433138118577871 0.14219069301037388
C 2.2929880276348613 2.1543621770642876 1.4116303078046086
C 4.1910277928662945 1.367090086696662 0.03488544534880921
C 5.385287911130777 1.3126140147893928 -0.05027276687942032
H 1.7705517951525243 -1.5083361889844324 -0.9132917229990457
H 3.355476247599646 -0.7589534729101072 -1.2473248719684737
H 1.8638071361628181 -0.011492296012628626 -1.8846555057377228
H 2.3571287895599062 1.9989306389375456 -0.7383905597521493
H 2.652300265026815 1.6099454567990632 2.2859520421996447
H 1.2039765010325334 2.211383660681547 1.4408830420837062
H 2.710374372450464 3.1639042120319965 1.433242293116596
H 6.440514992142592 1.2680219573998563 -0.12464198444213781