16

C 1.880166624438704 -0.29989546433726 0.7207924501108289
O 3.1830937150676633 0.005786015966588167 0.3165703781002923
C 3.202867382465384 0.9454144019754025 -0.7388907553230988
C 4.611877316833867 1.1499629471720183 -1.1802532418495353
C 5.205017157714626 2.340411310492093 -1.2419308546171166
C 6.591954757169586 2.572117246268517 -1.7184342163063924
H 1.9443936927369583 -1.0340044586188222 1.526309861570768
H 1.2880452129692392 -0.7287145113833682 -0.09714769504947753
H 1.3550544515171143 0.5851832294847794 1.0965045805153317
H 2.76440401961325 1.8995053571268157 -0.41535907630781504
H 2.5979849748908466 0.5662792806803219 -1.5755115207568449
H 5.150965659318668 0.25889057588219955 -1.4866125624539606
H 4.6449826672050945 3.21487407403816 -0.9257370925923007
H 7.080242333597868 1.640540357430792 -2.012844388765983
H 7.200153318569296 3.052825719092283 -0.9448507733209341
H 6.603153850506173 3.250422497768055 -2.5847081944007217