14

C 0.909568217566908 0.05101463213044459 -0.03484227834521185
O 2.3026872662783084 0.07003218457476386 -0.0008738182463271836
C 2.808930741001478 -0.6079585195690148 1.1288525835499037
C 4.2559153612926455 -0.5748262108736288 1.1414753080934474
C 5.455242005387056 -0.5645623313851812 1.1767255050934895
C 6.905790016150809 -0.5378601660594515 1.2045661124173275
H 0.5949557117381827 0.5838516898117473 -0.9242801709890167
H 0.4740305203123707 0.541621018644407 0.8535363652963789
H 0.5103110641780769 -0.9781182822249924 -0.07582130850123793
H 2.4620722242056394 -1.6536105168658515 1.1273878317920545
H 2.419238754451718 -0.14359742694109054 2.0554082384294134
H 7.27813993562303 -0.09194362837988859 2.127752862762009
H 7.294046085575155 0.04701410374593562 0.36287061821183003
H 7.3185539959354 -1.554645141069445 1.122442704528242