16

C 1.0397432692620163 0.007350232860407238 -0.2030444049123841
O 2.42331561394627 -0.14131950859171977 -0.1369342293074854
C 2.8291090601609254 -1.0785311465661513 0.8237606315868818
C 4.34408444253551 -1.1498625137977352 0.8506020839331946
C 4.976039891227035 0.1267272889875003 1.2932322566271013
C 5.8190630401752195 0.24644866780074445 2.3162705449502674
H 0.815978760196028 0.7527757669687937 -0.9731363102227771
H 0.6251335636112149 0.3616527665718955 0.7531794062909973
H 0.5389361148869529 -0.9346834574330642 -0.45836329096347705
H 2.4132119978002167 -2.0649241248810686 0.5780454609790258
H 2.440366491155704 -0.7914276348717373 1.821368031570634
H 4.681214519628762 -1.3953016519256651 -0.15408023968750603
H 4.646421372888083 -1.966061126584333 1.5176178311012525
H 4.715654608452308 1.0170250707898718 0.7152951637581825
H 6.107751064466319 -0.6129874156780339 2.9120955769935937
H 6.2546828861078785 1.198797548636588 2.590617469410275