16

C 1.041451106028392 0.15896591240891664 0.021521368553679015
O 2.4358033511998243 0.10201993864771987 -0.09277307489995852
C 2.870275976108368 -0.954190020990211 -0.9149916350533333
C 4.383870416799216 -0.9263148453096126 -1.0200511458198278
C 4.923069759916148 0.3571176091199428 -1.6177463143670634
O 4.810011233367216 1.461215653154225 -0.7529685719976398
H 0.7903058657720686 0.9965462623363868 0.6692909926269491
H 0.633352839810482 -0.7651861548184702 0.4533854250355711
H 0.562750302042097 0.3137545538751794 -0.9607923925040712
H 2.419700304867773 -0.8520980394459061 -1.9159195358794858
H 2.534035788250515 -1.9112697518002026 -0.49878997243191553
H 4.693906306110921 -1.7692766884656093 -1.6450650469483128
H 4.828590943786591 -1.079524077333329 -0.02632183267786582
H 4.419334736117197 0.5601140780379067 -2.5739978037548448
H 5.9915745914570735 0.24952959560221438 -1.8298912482142806
H 3.912641736756955 1.433078988795024 -0.37902752802888473