16

C 1.2681925664781728 -0.11526427960651352 -0.41769802245525556
O 2.611059394863575 -0.5083497226594254 -0.2919134373096922
C 2.9052987302455686 -1.224782936730013 0.8971453922206091
C 2.4331619617640348 -2.6623712179067436 0.8389189506160716
C 4.404311614004711 -1.1283787847471527 1.0583875952683377
O 4.8426070789975855 0.2115237976408557 1.1027974390809423
H 1.191432541664173 0.5053718983550087 -1.3157333615369282
H 0.9423213561377324 0.4711850558479644 0.44704689713474116
H 0.5949118748249097 -0.9665890307744023 -0.5300058375309395
H 2.426795587200076 -0.7063004438886713 1.7400111664935007
H 2.8974753503621273 -3.1864634264392517 -0.007866419053032567
H 1.3447970189500236 -2.729868273468449 0.7262197926494429
H 2.699962157777232 -3.1885795065926557 1.7523492917296273
H 4.886668138812866 -1.6777860942304346 0.22861039929294547
H 4.71108290939076 -1.5997256686484111 1.9861999896291138
H 4.423558317084882 0.649053411200693 0.35778192075310744