14

C 4.154502359572452 -1.8539743173903886 0.7606254678638421
O 3.5669180870743307 -1.312646193958204 1.9244644609385155
C 3.5441528171909464 0.09457979969238595 1.925461828558086
C 2.639707610089432 0.5538653063100332 3.051476104658176
C 4.933178977282288 0.6482656265419652 2.172228814913025
O 5.3235766904975526 1.7065537629612142 1.7781525971970897
H 4.125500592659227 -2.931730159918798 0.8572557093047544
H 5.203740991580947 -1.5413758810336664 0.6479616265845118
H 3.6045836397433106 -1.5500150599403633 -0.143174998765461
H 3.191059906276877 0.4847385748940527 0.9627690892163938
H 3.0038909990400517 0.18560735554316277 4.013432186348012
H 1.6373685947509 0.14222124594237495 2.9007405054690683
H 2.578351036381904 1.6357064919529964 3.0761233308842697
H 5.581391520675525 -0.02313307052426197 2.8023287942674626