14

C 1.2581609213747604 0.21503313590208292 -0.7668736670934044
O 2.6506892415778207 0.3678386312488648 -0.9089262641708012
C 3.1982034799716006 1.1774389958245604 0.09342246250563978
C 4.693727780258429 1.3341339395144838 -0.05883022835449629
C 5.356693912190694 0.6425460868115391 -1.2056272858044073
O 5.291752513451043 2.008562079619271 0.742991687260931
H 0.918431011340255 -0.42641775202397014 -1.590047088542983
H 0.7463309054535514 1.1838822522512034 -0.8272537753352696
H 1.0075168445330955 -0.2659397897097599 0.18838428797195494
H 3.0133360085529564 0.7523665251261639 1.0954428798456202
H 2.7599704978033235 2.181165908230454 0.09002009379794614
H 4.921530004214052 0.9759224405995208 -2.1466238203926684
H 5.174568252151654 -0.42871703757806984 -1.1595777968348175
H 6.432190917015007 0.8483966842773996 -1.193259407908957