16

C 3.4670522391205947 0.5449921929138358 1.442214612271262
O 4.222593991756698 -0.17309853583267906 0.5128338891418471
C 3.4195979821922795 -0.8939142219134748 -0.3870544696879044
C 4.329847462918749 -1.6254173182853775 -1.3374452244372523
O 3.52640841348435 -2.341306017764533 -2.242679840254457
C 4.275861495871439 -3.0619969616920466 -3.1722583524210606
H 4.165216386301876 1.0663809371863597 2.1028707515450167
H 2.8248006757082327 -0.11113876472191972 2.0454849152281915
H 2.8199667800741604 1.2933225149432985 0.9528095208451528
H 2.7576176757477477 -0.21392839006604086 -0.9483860851518194
H 2.7723135796462426 -1.6050378970212849 0.13885933465347708
H 4.985872979783764 -2.3010717165788748 -0.7715081057059848
H 4.975157202965877 -0.9081619734710547 -1.8665331718676186
H 3.5798346019717444 -3.581805440774316 -3.829058668359486
H 4.93136294910382 -3.808970128069809 -2.6777802187372517
H 4.912539437726518 -2.406809127739753 -3.7826201029765714