14

C 3.9086834359803646 1.071216353697851 -0.6968618725976988
O 2.828834820143186 0.2855818114596091 -0.2720031310106258
C 3.121362076110616 -0.8193122485201375 0.457822004232103
C 4.342670895601384 -1.2242395221670066 0.8097189105183991
O 4.647009750160741 -2.3288783176249663 1.5503956773731797
C 3.5579832317343785 -3.113187925434943 1.9699797911291501
H 3.4998068742712363 1.8933211038659183 -1.2692466400328182
H 4.587358884638098 0.4881297211274643 -1.343031354157368
H 4.482108236363239 1.4592232935379004 0.15574515570902359
H 2.2290682481062856 -1.3479768824553968 0.7353065986283386
H 5.249609324843289 -0.6917841800352874 0.5349762560529772
H 3.977845485420369 -3.938972255260663 2.5364140128373824
H 2.9881713030211574 -3.5009158024622042 1.1145162583022445
H 2.8815073100466706 -2.535315172794306 2.6147758354327704