14

C 2.963721986320753 1.2362638795049732 -0.20130190335443954
O 2.403845357356442 -0.005911180841736185 0.1475341752433822
C 2.881086161445868 -1.0655437309437106 -0.591412558058294
O 4.230243222801151 -1.3134341352747834 -0.22384223685402624
C 4.851507762155608 -2.3111961675265222 -0.8559758090552999
C 4.3563492589000505 -3.137519323026177 -1.7830803585752744
H 2.4362230223490413 1.998056042936736 0.37284255787964743
H 2.845222492664712 1.4414807407425696 -1.2750039078421773
H 4.035167789414484 1.2733246302685033 0.054550440960886064
H 2.8498548308107123 -0.8574237210083316 -1.6671615048622965
H 2.2652783097636897 -1.939278102046716 -0.3486820846281952
H 5.874090538450497 -2.397929542119037 -0.5109692729811663
H 3.3427201831010085 -3.0872533097445536 -2.1551016961602727
H 5.000942353064767 -3.8938520103067535 -2.1918165543583235