12

O 1.0141510144246473 0.22301903456424796 -0.0677525260085646
C 2.3971543244347435 0.0925339197168037 -0.03629600698994319
C 3.094600914629327 -0.6778504806893387 -1.1077379995584447
C 3.1372622494088596 0.8446267469657556 -1.1014132899292408
C 4.364282173608019 1.5245177036614959 -0.7834390466448925
C 5.392817920768964 2.0800533140444952 -0.5255961929742577
H 0.6218558594602125 -0.6160501680937958 0.1962303520256104
H 2.8435272418222226 0.0821510124410311 0.9511547616144713
H 2.4712376219049976 -1.1202673251528805 -1.8836858032172057
H 3.999926253841435 -1.2085072122541798 -0.8707470466915432
H 2.5023745323541955 1.3273148697565793 -1.819722974171125
H 6.293120990671744 2.589938023145059 -0.28852733520385077