16

O 0.9347248921074194 -0.035838164334677375 -0.16807702210146847
C 2.338612358329239 0.009316779116352283 0.003931703628917218
C 2.8453654556939085 1.1289331026751352 0.8990762771086462
C 4.260406802366344 0.6652248309865203 1.2502468660709576
C 4.1604035511795665 -0.873013449214501 1.3629966171227972
C 2.819516000038738 -1.2538594467536595 0.7119900860578745
H 0.6609260417704309 0.7505266276688697 -0.6361544175394528
H 2.8320151018237443 0.08269826455840691 -0.978282296253053
H 2.208280361346956 1.1664263431704975 1.785861834804202
H 2.8197501261396294 2.1099001197568947 0.419228078604426
H 4.643236981616997 1.1382564517561808 2.1600433099547405
H 4.9492836372299385 0.9460745005848162 0.44237660788022126
H 4.192400539943079 -1.1937179957049293 2.40377186194281
H 5.006463310084238 -1.347803729870298 0.8574280528025048
H 2.0705352454443107 -1.4982616099853572 1.4738401914169788
H 2.888325719971981 -2.1088958279149344 0.038502323309079815