14

O 1.0718384912194714 0.09698878360766285 -0.10606234869420865
C 2.492883393917529 0.017578744779897418 -0.05956674311176481
C 3.0144656486250203 -1.265443627182137 0.6222442036495113
C 3.3616414722911943 -0.8622031967013783 2.063817098891884
C 3.43470228524327 0.6321754279906369 2.00197419699175
C 2.9783323426991215 1.1076460046979337 0.8459808022273467
H 0.76422787418724 -0.48912312353513376 -0.8015729692655575
H 2.8941250169470263 0.10944825532992485 -1.0731614450747946
H 3.9190899822456196 -1.603462764418716 0.1151614864250792
H 2.2825051113107984 -2.0672539514178867 0.5652590357509741
H 4.300385666680518 -1.317288830975918 2.4034538925731845
H 2.590118109077038 -1.1780225158352482 2.7803054957767093
H 3.7916021739385664 1.2424942603731068 2.8195377540643314
H 2.898974341975151 2.1550133120745807 0.5793861601675043