12

O 1.2839076243150334 -0.13977078070832066 0.2811908531695165
C 2.4195123360128914 -0.021750119946976447 -0.0370233714835524
C 3.27189033920129 1.2362358555213717 -0.03833693343712169
C 4.444244887793597 0.8664451207008751 -0.9151346627264363
C 4.506684344324432 -0.6390752095279909 -0.735867966967414
O 3.1666389532098043 -1.0593082491772385 -0.48223682634118004
H 3.56874136412584 1.4283785569795047 1.000543400303945
H 2.6778591846720174 2.091329427542207 -0.36818582602802835
H 5.386935451819729 1.3616553763897314 -0.6361810055590775
H 4.2306603195190124 1.117269921812296 -1.96156719661071
H 5.128882675870138 -0.927379912397237 0.12028700535953266
H 4.8628175339171165 -1.1754348701812425 -1.6151851721688788