10

O 1.136631013188494 0.14042311646901834 0.4072453053816545
C 2.2721032417948694 0.013554495943110832 0.08460068070473425
C 3.1286217482014123 -1.2361068628172298 -0.01231905461792436
C 4.44106263964842 -0.696144025886254 -0.4672239476873241
C 4.299829623708726 0.6232660183186169 -0.6004931102569104
O 3.0507168112878706 1.0922788046795595 -0.2829302008281828
H 2.6569266483446374 -1.9339223907014405 -0.7040531296741656
H 3.153554561227184 -1.72058940781686 0.9685904644278749
H 5.328975546293524 -1.2590073306019047 -0.6683964609958657
H 5.00991031333918 1.3812066010540396 -0.9049884416974197