10

O 0.8457106503120467 -0.05396091127202001 0.05643137271977649
C 2.2022232869766025 -0.013495771083456403 0.06025331421503874
C 3.045141072422036 1.0518588903803803 0.06292609821062699
O 4.334817954668226 0.6126773428978778 0.0692583314918665
C 4.287910432218656 -0.7391991402475443 0.06806539558951413
C 3.007460122459545 -1.1885040688186492 0.06767299549531729
H 0.4999563898854825 0.8401802093405514 0.0565717529522807
H 2.896973289605326 2.1119420721121784 0.0598829557228388
H 5.244257735059203 -1.2375497683540542 0.07038945667700172
H 2.673900218411992 -2.2063167436768527 0.05924205911744182