14

O 0.7876216509445345 0.02214434293481428 0.23400158740760246
C 2.177670062863503 0.11375331993826426 0.07571462318901959
C 2.955457731039626 1.1612972639314467 0.9077139517685519
C 4.010387599924721 0.08051782818570885 1.1776119110594874
O 5.058500866606619 0.21507959265959842 0.2304464055264316
C 2.969942928527839 -0.9777863246675804 0.781476475361304
H 0.36046083785035515 0.6918642732552075 -0.3017537869207548
H 2.4543126681465157 0.17598643070183306 -0.991865220567694
H 2.3991224904681467 1.4064685335538585 1.806092238846862
H 3.3116932992533403 2.073330448133931 0.417121913055487
H 4.413389278264033 0.027506652243407786 2.1900398613882723
H 5.606456436770462 -0.5671063708497978 0.2788993125803321
H 2.406201948213785 -1.327895742039516 1.6602255184272907
H 3.3024997329408756 -1.8470973221684488 0.20992622079432746