12

O 0.9713372059379175 -0.08035513893934092 0.02599535930814246
C 2.391423354435823 -0.10429562812842869 0.04081607766607345
C 2.9876010620998668 -1.322628420172161 0.7531046071195463
O 3.4088580839165266 -0.8962468201225154 2.0530944182531092
C 3.389109098313259 0.4507480356121475 2.027354379799044
C 2.8856101249243697 0.9960040038475231 0.9315522425056857
H 0.6636984139851217 -0.6121457456219778 -0.7198074292782919
H 2.7650059563559823 -0.03116758770165987 -0.9829341481759104
H 3.869198807195728 -1.7019093997323864 0.22796363962811406
H 2.2609778463538106 -2.1293721774573453 0.8799282956457587
H 3.774469668215334 0.9243313268160035 2.925267038839684
H 2.7572494901498303 2.045740928265938 0.7316902145829532