14

O 2.4169389637876058 -1.1580412816393357 0.7714013287565604
C 2.4058562741080896 -0.046175671063198385 -0.10611341466197542
C 3.0237522984565706 1.1235893764790934 0.6200712864381206
C 2.8652705037930897 2.470382110285163 -0.09026041609051784
O 1.9299555490844924 2.9367715056995896 0.8976478723238025
C 2.144624086636525 1.7619899475120795 1.6998681525680106
H 1.9645347417754326 -1.8866628362137652 0.3404825109498798
H 1.3764779470650061 0.21968075955857594 -0.40343908780610704
H 2.9748824553338657 -0.25658912247077986 -1.0200591867722146
H 4.034650093736185 0.8669326288731855 0.9382670019810804
H 2.424231591533482 2.4457192908217307 -1.0962457905433365
H 3.7708483275440656 3.0935753498764496 -0.11871124807919603
H 1.2007477133297078 1.2420176660295819 1.922835951906138
H 2.649628897680126 2.004927173220749 2.6366541478561643