16

O 2.382937743975214 -1.091317436155501 -0.45505680264283754
C 2.2193700567477856 -0.0023941400798684117 0.42952602697127473
C 3.04874476578408 1.1490250336869225 -0.07446119975640382
C 4.531402986063131 0.8753039706644083 -0.0683769436066184
C 5.505670177736304 2.00421181312841 -0.0036144046811897044
C 5.327861191361574 1.1025592755382272 1.1799644222034056
H 1.9149174352720522 -1.8503907940060658 -0.10814651816673007
H 2.550747349424426 -0.2826021602935932 1.4412932118725386
H 1.1654191298656476 0.28944125013875827 0.4864411008795003
H 2.838769592258643 2.028932815360448 0.5443139012012802
H 2.7185427133948235 1.401018931249675 -1.0948177009769187
H 4.8249060671684765 0.012062203023893808 -0.6679444322209643
H 5.113556764565434 3.005524111202508 0.0622864939711784
H 6.421218542688521 1.9246191569709887 -0.5801437961486451
H 4.80495492991832 1.5045946633976903 2.044294342248768
H 6.1206097811441 0.40255273628391897 1.419958834736549