14

O 2.578122132882899 0.33562395864432576 0.9352123396016342
C 2.164972978185379 -0.23794392861922184 -0.0322832475988245
C 2.993100455384664 -1.0607487694666693 -0.9751145975628123
C 4.467287668457262 -1.0629597210161246 -0.6775300151309619
C 5.437929988297034 -1.4707022149105387 -1.7457239214389348
C 5.3523778542204825 -0.03804739489867499 -1.3100092707979756
H 1.075170231410006 -0.20310121898719896 -0.28774601139062617
H 2.7891137450725645 -0.701466946586206 -1.987889868355201
H 2.571760488762752 -2.0781966094080984 -0.9500485317655153
H 4.715009226315429 -1.3420054896943368 0.3377109719825546
H 5.038184996908354 -1.7171473593165885 -2.7224002586231935
H 6.299656902729607 -2.0441068030500613 -1.4516794810692448
H 4.900590503407149 0.6793276855335735 -1.9813840117159462
H 6.158321743615472 0.3684556987238017 -0.7129327812712775