14

O 2.5583886792841497 0.35273884426531077 -1.3546688009491543
C 2.296029948627168 -0.19479195774348373 -0.08306387484860255
C 3.2169033922347263 0.46803610642262156 0.9165656359661489
C 4.659504973131828 0.1533323551171 0.6689890894448909
C 5.627777608376975 0.020795416939819514 1.7506861660756152
O 5.106159416537186 -1.1253622009249535 1.098033910421168
H 2.0861088770728395 -0.1566196359622289 -2.01396988738783
H 2.485741183586555 -1.2855334861545693 -0.07155982529892797
H 1.258996224397329 -0.026650967221799077 0.20713015806177734
H 2.9570550957831983 0.15009600138007811 1.9251023996642707
H 3.0677051849504013 1.553674434857086 0.8592515329925382
H 5.0417940941170105 0.4394424227575765 -0.31619697226572335
H 5.2910920740013925 0.1656019616419761 2.7793165882459006
H 6.681328676315196 0.2267781409314977 1.570382269648586