12

O 0.9709585924617233 -0.26873731088344044 0.26015013440189017
C 2.329015922795644 0.0809303145203134 0.040277962967380385
C 2.5145176156753313 0.7115276489198659 -1.3172396355648088
C 3.085029075900738 1.8771297257342403 -1.5688682943732137
C 2.86534095546064 0.8986114240055629 1.1318618490379988
C 3.273241046531697 1.5689455979061102 2.040116134255375
H 0.46330603702617257 0.5558592358211915 0.2808371222199809
H 2.860254012827884 -0.8783879841564666 0.04757803808653713
H 2.0927906103820018 0.11110328078385506 -2.1148214653449995
H 3.5054788634966694 2.47670835959155 -0.768753742917965
H 3.163561367474365 2.255869230568556 -2.5750628471335912
H 3.637002707349334 2.148896714327326 2.849753858956059