10

O 0.9826963154438773 -0.05329983388993855 -0.08809023096231344
C 2.3950070989439305 -0.108586016196327 -0.060840842544317444
C 2.9018167394701715 -0.5585469216316472 1.245978187486975
C 3.2839139739074046 -0.8804236068020144 2.334835842142044
C 2.868501310808468 -0.9821444562129816 -1.1371271336070523
C 3.2656547779477627 -1.6655776213977735 -2.0345448070081362
H 0.6974621385379353 0.3453657617584158 0.7349600038028835
H 2.8195790608491498 0.8944857809394446 -0.23958497618283175
H 3.6292189728536544 -1.1822776178839645 3.2988356393545106
H 3.6199672970345906 -2.2854547239891336 -2.822641444373514