14

O 0.8752993040729178 -0.04402008488665592 -0.1328402933697739
C 2.2791003474345546 0.05793377822759655 -0.10266036523051707
C 2.730366951047987 0.7930097101788708 1.1212987275063722
C 1.865594237276338 1.272742361308273 2.0096616990298957
C 4.160836832650876 0.9782844605510703 1.3050996982762089
C 5.127495027627447 0.5629484997832669 0.4905041521902332
H 0.6175133187964249 -0.5190738063379523 -0.9285159530483705
H 2.6580193807666883 0.5794698922121 -0.9967646550666351
H 2.7424649241849814 -0.9459450971538913 -0.09664575892131842
H 0.793136145593559 1.1403926521617582 1.888745432240191
H 2.2133671596163236 1.8077452758676056 2.885818020095993
H 4.437507372279255 1.522542284927798 2.207193558189072
H 4.925211047796387 0.006686499153094446 -0.4211520758516777
H 6.1763838857105995 0.7476408574693125 0.719127774770715