10

O 0.9318516292883504 0.1184141514588145 0.0037482742439852424
C 2.3475028719235924 0.09579057558115646 0.006017910660157797
C 2.813572650955841 -1.2733541353720643 0.04548870216260385
C 3.233727973818753 -2.408127298530348 0.07667917602004443
C 3.713819682874581 -3.6798648468787616 0.11026223579022515
C 4.132746485752565 -4.813816825233905 0.14768815583864092
H 0.65239014621157 1.037620287823623 -0.032133568213222906
H 2.7497699341527024 0.6319257989731316 0.8699673264829937
H 2.756055975598031 0.5732597359641313 -0.8980935314907049
H 4.498657266142858 -5.804377122445909 0.18132814240137582