16

O 0.5714451724013118 0.08993320940766338 0.032828376854938224
C 1.9492711838239465 -0.22723464802352206 0.1599277202111489
C 2.738827247688896 0.691832323230658 -0.7380531182913106
C 4.238919283672583 0.42425288122573784 -0.6781002276369994
C 5.0144305767297706 1.298428940382638 -1.6040562219671763
C 5.973071352557487 2.1367820063401712 -1.244011750648329
H 0.06556944573985561 -0.4832937442703895 0.6053042265285766
H 2.137112135589445 -1.2722539757676168 -0.11822244874560622
H 2.278851107133058 -0.09659207109375362 1.2035559393288884
H 2.52667402556271 1.7355612162017537 -0.4611984973340576
H 2.3754574224114795 0.5684656562890166 -1.7667255362088448
H 4.413276240445968 -0.621140847063409 -0.938351145296475
H 4.603552413959304 0.5656210619884455 0.34322469217254237
H 4.749481887335891 1.2270606175993448 -2.657333381903078
H 6.26943477322947 2.2425779745854553 -0.2012596627006729
H 6.5052037899677835 2.7438968690441605 -1.964971896128549