10

O 1.6640824672767982 0.06820947591671993 0.8648997114744565
C 2.684887694357712 0.18635226006435265 0.24571523257765032
C 3.1610219747022343 -0.7979693983356323 -0.730247671941126
C 4.311235826293209 -0.627845189480148 -1.4002382829500675
C 4.7949963356689915 -1.612310047513584 -2.3791983615152805
O 5.810470697836222 -1.4947334228424907 -2.9996883407230372
H 3.3385595773483985 1.0718088416588045 0.37637975616140584
H 2.5486588010448927 -1.6775563797939474 -0.8826221116373466
H 4.9272379603023175 0.2524801105616755 -1.2483928003434077
H 4.133953120674487 -2.4998713113894775 -2.513419380385349