8

O 1.0767848713381436 0.45151877545020974 0.3999703415900786
C 2.1045618393130896 0.04564632062233927 -0.08451576874960968
C 2.804573508898927 -1.1267032562026096 0.4038209788780972
C 3.413666883944316 -2.098217898152371 0.7768721487522475
C 4.147853474120364 -3.238437097517319 1.2659056254048486
O 4.053299761931745 -4.336723786141167 0.7969198776046532
H 2.589073515101787 0.5325891357357062 -0.945426162126314
H 4.816522632347509 -3.0137640030254107 2.1125817804308986