14

O 1.8556227020250609 -0.47556900855710954 -1.5543119144560698
C 1.7149968745721442 0.08890693201159375 -0.2675771278053385
C 2.862344104260838 -0.40721895868960506 0.596848319467367
C 4.218261015336856 0.00495203470136076 0.07328325165649162
C 4.565738406558015 1.4509036863057945 0.2871298378813441
O 3.8852189164173425 2.251435801631289 0.8563160743565759
H 1.1974616203810544 -0.09573128730771566 -2.1309934760735834
H 0.7692838399500127 -0.2233060136819595 0.18882355116615288
H 1.7276105953476104 1.176180360558227 -0.31127423844447744
H 2.8124073480408844 -1.4992952883484951 0.6397865642492919
H 2.7170192777519784 -0.02344044607273578 1.614143293781563
H 4.320941106386394 -0.20727269144994126 -0.9987126731753505
H 5.028805397724839 -0.5677501389247311 0.5519481464734454
H 5.558414113113778 1.7515046733821489 -0.13592600295910023