12

O 0.8463884066499098 0.0582587953231771 0.07803008693052851
C 2.19623297201652 0.37226436249761413 -0.08174455534677401
C 3.067578842837822 -0.8202055964888063 0.24548022429742974
O 2.5318002796606263 -1.8578375420281752 0.5829139356448653
C 4.534400379892331 -0.718444833786963 0.1470001492950275
C 5.198384286727013 0.3828012811750779 -0.20830454390483477
H 0.8359799213378312 -0.870339547422665 0.35205685841751605
H 2.477240900268399 1.2106918867645413 0.5819812199376324
H 2.399149860025355 0.7034351401358181 -1.1060395603177247
H 5.059235148703756 -1.6382223585390514 0.4061314692851215
H 4.688090070486197 1.300248207102508 -0.4603958744055201
H 6.272793563772944 0.3925024234485087 -0.2510982733102816