14

O 2.719011792608997 0.7308348748246142 -0.8343970502091803
C 2.448116249781952 0.1319897650077106 0.4144789803044221
C 2.9996158428844226 -1.2822505119564858 0.3538784279946366
O 2.407049352957246 -1.9814617225765092 -0.7287907359579293
C 4.500474789878965 -1.2926938576794873 0.25498190624902883
C 5.290387844499682 -1.8536695803834449 1.1511830138405457
H 2.2059917328616234 1.5392436728896797 -0.9118735694812763
H 1.3626700346052665 0.07405420652245805 0.5934518230329334
H 2.9136074598144313 0.6793787309580186 1.239425770751025
H 2.6997162962048638 -1.8087003191530768 1.2660348928018978
H 2.423794037483696 -1.3732237101455165 -1.4758091643771891
H 4.9153322852678025 -0.8136095314820676 -0.6183044555913897
H 4.888298507066569 -2.3473406493218327 2.0282048173068072
H 6.375163392650894 -1.8443873128190273 1.0520565946844063