12

O 2.777888955447696 -0.3222166757285013 1.3897533918972924
C 2.4236049123401004 0.04746637390354709 0.07615798381903577
C 2.9819362862389025 -1.0073804463957183 -0.8824725101570937
O 2.447593574863104 -0.8163031897201224 -2.180935543395621
C 4.441940687326656 -1.014514364761018 -0.8907374057641194
C 5.637884122975627 -0.9803687577809084 -0.9406749127971418
H 2.524210399601043 0.38094578707821614 1.9849754756999807
H 2.824071778532751 1.025272422581094 -0.20111735862552438
H 1.33562391644191 0.0644827518108486 -0.06849050626468992
H 2.6236108276009613 -1.9856819737613713 -0.5420459689138678
H 3.009942884445399 -0.19349011182970094 -2.6451692614689515
H 6.697354011161554 -0.9709021132390964 -0.9702234728736718