14

O 1.3083004153336992 2.798652115324405 -1.3983198103444459
C 0.890736253852691 1.562418746305434 -0.8557080386973618
C 2.1479766524469674 0.8634144667026059 -0.3873883120749147
O 1.7458534001874895 -0.3739070956726946 0.16688424109071084
C 2.7231692933785734 -1.1702377272339026 0.6416750375522611
C 4.038461353244964 -0.9382942930510184 0.6651347665594858
H 0.5308350203287214 3.2722439579137976 -1.7100685849959867
H 0.37661895087330655 0.9448890429847635 -1.596786467027415
H 0.21903110544315224 1.7035466081680322 -0.002391052144779175
H 2.664832110336508 1.4672849282898035 0.3654092180919546
H 2.823794782456275 0.7043781858369262 -1.230197264348491
H 2.2985963669210054 -2.089539360000327 1.0368537879058193
H 4.48392794073615 -0.028553699131361535 0.27163789357678403
H 4.6864088194178875 -1.6791788794249864 1.085316441499975