10

O 3.483988778281513 2.0959021793956705 0.48946987857629554
C 2.7005142145261405 1.2658618037359952 0.8549433077366836
O 2.9664848441452527 -0.01224632271018798 1.1350532216541027
C 4.327416809882153 -0.4338850700297633 1.001674751064902
C 4.804543110903723 -0.999944340457978 2.2449433301276267
C 5.228768046656415 -1.4696917792469957 3.264751188780082
H 1.6215838842720796 1.4431765966993688 1.0067320347757176
H 4.941648646948835 0.4236936137491483 0.696395138472539
H 4.35616336388002 -1.1838026716080252 0.20323463231961295
H 5.594332029231175 -1.891529670638064 4.173330043682257