12

O 1.07535471342591 0.023926037270043957 -8.936799295799353e-05
C 2.376320878732553 0.12797058600704456 0.34097074992851584
O 2.799031219854665 1.0068350830688537 1.0273663810948548
C 3.178890354270142 -1.0094161910863126 -0.2448892428753565
C 4.654315332478504 -0.7565219054834937 -0.20947773069519213
C 5.456668897370597 -0.9784636305726557 -1.2381429976657925
H 0.6229903014160868 0.7570390081614158 0.437161645877076
H 2.8250381809583245 -1.22621390407107 -1.2524591439466752
H 2.922243237640279 -1.8879666852177972 0.36397759974733984
H 5.045212831689065 -0.3844065489834957 0.7282329949120635
H 5.092297102206404 -1.3418878544234134 -2.187646912827641
H 6.525624645385676 -0.7991425814818159 -1.1570971131563494