10

O 0.9008024589142408 0.16771448484368937 0.3563127375801687
C 2.2028431010271747 -0.010211210915536397 0.07193690577033958
O 2.5928178450416732 -0.8475898533497725 -0.6767753136168755
C 3.0351644991359064 0.9876209679001051 0.8501389000184041
C 4.463208844188596 0.8786416307889577 0.6217698627277956
C 5.64246646549073 0.804042112708173 0.44290919439885384
H 0.40465769270040264 -0.48663759657647493 -0.15771817196629992
H 2.8045984756897515 0.8488263957480945 1.9088776992126988
H 2.669408417325212 1.9860650471789976 0.5942253859978812
H 6.690371617454228 0.7392962108153665 0.26962086800666596