13

C -0.2851476970264084 0.772908419902775 0.12014938155505399
N -0.4062366840085418 -0.6514350692887372 -0.1888442179788181
C 0.911309043596477 -0.08453265460146944 0.0727727570871548
C 1.56967625219964 -0.5605207080168931 1.3246175879251372
C 2.8476964201778197 -1.2639632105932657 1.3014368452729548
O 2.773198862130706 0.09788830162494126 1.6895838702697212
H -0.7018736519952331 1.0582446570774222 1.080876442498499
H -0.4221901436363082 1.490624128429865 -0.675097555590779
H -0.5379655021839438 -0.7974176274034368 -1.1752230379347326
H 1.5907870395724815 0.06564110931443347 -0.7649438417724151
H 0.889913106161861 -0.756340313087407 2.145046386416337
H 3.342714608956067 -1.4405016070757712 0.34449011772016797
H 3.090728338351508 -1.9637481669538934 2.0980385518717335