13

C 0.5897191868419133 1.3266430473813717 -0.049358853168657305
N -0.7902731247305036 1.3614961709030171 -0.5142505165914769
C -1.4414177631234617 0.14225054235232307 -0.0348070679099845
C -0.3238180340018279 -0.868779623362211 0.1090399163910542
O 0.5353233366737441 -0.9133729711379787 -1.0168447126396698
C 0.9316736003469535 -0.14155044490099375 0.10644347780647206
H 0.6896213085299007 1.8129080699155198 0.9342457526011532
H 1.245332491150709 1.8571171563888291 -0.7460771890737923
H -0.7793826489067085 1.3344720087979716 -1.5233773253978287
H -2.2196736474991687 -0.16652521176563043 -0.7236037253355564
H -1.9038645466632802 0.3019449477233052 0.9449633764499381
H -0.4739506617880219 -1.8080105254676118 0.6384245390080352
H 1.8212753039944256 -0.47368191387557335 0.6332516403795219