11

C 0.2580899611515455 -1.3793400604153565 0.02948582673658206
O -1.061985197115821 -0.8235492235122827 0.0181597595828945
N -1.3013574912820063 0.5292088714046512 0.004369127245654003
C -0.3055689000256534 1.3228731104204035 -0.0050478385851078725
C 1.0863680689914053 0.9218271492562908 -0.004517378334129707
C 1.358155073868974 -0.37403533614728623 0.00830371501018127
H 0.33095159594678714 -2.0391228122956093 -0.848036817520237
H 0.33603359350949424 -2.011592827316483 0.917317534965202
H -0.5856156416171767 2.376712918336586 -0.020902101567656362
H 1.8639817054794396 1.6794783837986287 -0.020494640385745274
H 2.3790306246761936 -0.7534581382934264 0.004273102708059707