11

C 0.9964393412350117 0.02912459929367273 -0.08093897991616834
C 2.470969527435412 0.1768029467094537 -0.07651445965201238
C 3.310872272043353 1.251312601971884 -0.06903002604012226
C 4.594422382873538 0.6641011373008808 -0.0635155244643411
N 4.529185314630773 -0.6370470051696203 -0.06626201902664396
O 3.189232578891389 -0.9411162492997959 -0.0708080637678588
H 0.5253974005605355 1.0143992043203138 -0.07882308159102579
H 0.663645151771636 -0.5209188850821952 0.8081710030475462
H 0.6665771872060127 -0.5241930624741796 -0.9636788226990667
H 3.0411090810117485 2.293912814171517 -0.06964937225617439
H 5.558927893962449 1.1383348069259123 -0.06866805390218399