13

C 0.916694479886383 -0.012173309360637402 0.0772987203554572
C 2.414976478179066 0.08448312911450116 -0.10065834499068821
C 3.1567630467867627 1.171428133352702 0.7101094800438414
C 3.913907590541442 0.012064093294544267 1.3813638278027847
O 4.781066392269488 -0.09750916263224238 2.1959628054886595
N 3.202195979481722 -0.8958343961539385 0.6551511481404021
H 0.4188509628402102 0.8317969091640202 -0.4127493283041275
H 0.6557336775236832 0.0007833895754499826 1.145369887928662
H 0.5288439418713896 -0.936611742724401 -0.3558663184028512
H 2.6714847268976345 0.09424963651015428 -1.1598152746899815
H 2.5262109736234546 1.7462264834308416 1.3986497945911003
H 3.7905489388379707 1.8488598073851243 0.14350287447446985
H 3.271827215774157 -1.8996099844922083 0.5942913417369244