13

C 0.8396273450455414 -0.04399798259956524 -0.29271720444909843
C 2.2992701117552397 0.29354101678412686 -0.27841453056878657
C 3.3277909759994575 -0.5943681119511065 -0.8887243649183011
N 2.9294799287497484 0.6196914786173824 -1.5362628714985458
C 3.7814015290105516 1.6839201271386108 -1.7352180033109632
O 4.930070717089279 1.590716278612349 -2.0717363606168084
H 0.5697589527193146 -0.6247584106965475 0.6007629484926253
H 0.5876627668489092 -0.6301801072655183 -1.1721293106327508
H 0.2205475280095112 0.864738229598994 -0.2880804243444724
H 2.6405465166185262 0.8747388891728536 0.57923509177336
H 3.0018101853086834 -1.5170744778724423 -1.3641881948903756
H 4.3220892674512505 -0.6148362885484575 -0.45226620779384613
H 3.2675896798983883 2.6559823767927 -1.6052945735646091