11

C 1.0258588100094288 0.07282076780157162 -0.03239405334008704
C 2.5088713571169694 0.12407446370975038 -0.02855498769110843
C 3.343570123873926 1.1798308400432787 -0.028855588209215736
O 4.6208918105533 0.7227201373169969 -0.022748045921365076
C 4.489736558210405 -0.6178261723876328 -0.016856040874232224
N 3.276045242230894 -1.0374829255354305 -0.019919623994538452
H 0.5994253610753919 1.081796357123776 -0.036394791607251516
H 0.6575818305346868 -0.4563827457613102 0.8559423196553188
H 0.6570480383729465 -0.4641828072293016 -0.9111627027255692
H 3.211588700580145 2.2513093478838635 -0.026736846282334567
H 5.400719142906195 -1.1907547206855142 -0.01061585951253658