15

C 0.9193491690526081 -0.0461436354474623 -0.015618103715178418
C 2.430074319937876 -0.0946304868422442 -0.016263134873742785
N 3.137074454011683 0.9674827460982637 0.7505054723317874
C 4.108737084376477 -0.046492899112816725 1.2422531016421414
C 3.160596611977406 -1.1679326980640898 0.8016528455125542
O 3.65841827250022 -2.3217575465935205 0.18665865943075483
H 0.5517807290611518 0.8662479166565911 -0.4912517771499536
H 0.5305898784286235 -0.07119808111170742 1.0136830419261633
H 0.5098931843141807 -0.9010397943833123 -0.5482253674838693
H 2.800150334470841 -0.08612545390602604 -1.0519582410514587
H 2.54764017204733 1.2894832847933877 1.5094135266729571
H 4.366574225814515 0.025481811968908412 2.295964421993916
H 5.02952218065894 -0.011472431064928342 0.6464260283657915
H 2.5437426621594352 -1.5155006922746825 1.6304260167275182
H 4.228635646042012 -2.0601023019930627 -0.5435636033148656