11

C 0.9396168492962402 -0.027339933529867553 -0.007802901716050758
C 2.419027601560129 0.08650494652013371 0.10852690714399588
O 3.206253720664265 -0.7248497213097582 -0.7505052318188017
C 3.2373314386777174 0.6763965932030838 -0.9647289969407251
C 4.471437397881824 1.3566026529031734 -0.6721659746869401
N 5.445775542677313 1.9178842366874456 -0.44548808312278154
H 0.5859470342777213 -0.9285739523925439 0.501101916325011
H 0.6291726653117322 -0.08979264274997623 -1.0548078076270428
H 0.4549151644284929 0.8240155510536257 0.4509601682797442
H 2.8310081633089768 0.1638895685610165 1.1134014475835072
H 2.740748976132734 1.0095361134146048 -1.873167800780199