15

C 1.012420133762586 0.15194033725744885 0.1439394562930683
C 2.5012074052304434 0.01942319454797197 0.05173029397213527
O 3.207284051318779 1.0437607175076316 0.7754043029111031
C 4.126070657502405 0.07502355805300787 1.3100432173054986
C 3.23143650960816 -1.0773255412964935 0.867827887864233
N 3.873955076388016 -2.2141697213659057 0.26536798194830663
H 0.6795166212153729 1.0919782268240164 -0.3256373701065978
H 0.6822671856689313 0.15551211309896282 1.1840324301657934
H 0.5210913061761784 -0.668729010808381 -0.38114265441213535
H 2.8343262161446923 -0.004610687513196895 -0.9939706366622333
H 4.296223692347799 0.21687536502349974 2.3857524155815595
H 5.094008182820785 0.08731054647022592 0.7827922506278386
H 2.5997054715138663 -1.429168604937433 1.687496459328215
H 4.37874181808352 -1.9432684185089613 -0.5682875463506866
H 3.1983922187705147 -2.930524610826134 0.014290996857746395