15

C 0.9149375624984861 -0.0968474005482816 0.11620278492853606
C 2.4201049411763624 -0.09931540539723928 0.013895934451915027
O 2.84867284398635 -0.1765382704217395 -1.3300846430404194
C 3.173013082111556 0.9709068399016235 0.8463893872951538
N 4.058263981523238 -0.0694413184558248 1.3805036068481575
C 3.1915906337544593 -1.1390990544497313 0.8484272528109194
H 0.4948228097190439 0.7769626222971937 -0.39248281930944123
H 0.5820463792922355 -0.08270542070002437 1.1488854373164379
H 0.5118340998257845 -0.9942183966806107 -0.36663170845631754
H 2.447078129413721 0.5439946655616873 -1.8167896001194663
H 2.5384588389485283 1.4669236038338582 1.5901028962240704
H 3.6991668160892566 1.73265424774436 0.2608922401678514
H 4.165040006543387 -0.06984652650906234 2.3853525362307284
H 2.5530967547389185 -1.6331951720692703 1.590644798789454
H 3.7170793878530386 -1.88973524864706 0.2589793263214483