13

C 1.0072654522070592 0.1680916255857838 -0.013618543967568111
C 2.491367355519467 -0.025434027720623743 -0.06340003565921914
C 3.104672094766099 -1.0444940056494447 0.5436401393114941
C 3.2282959386593046 0.9831075382198353 -0.8272709237014407
N 4.487353351556412 0.954920210052111 -0.960801241966889
O 4.948757881615173 2.0153079298859753 -1.7248523293193425
H 0.5323501230494332 -0.6089874939985312 0.5708179590333667
H 0.5774395114592952 0.16152767839273946 -1.0193137827113
H 0.7613603171146682 1.1352915783390412 0.43662261317676654
H 2.5321199804873133 -1.7753534392487298 1.1070834585637037
H 4.174597400116371 -1.167306411983109 0.49462279541121157
H 2.652931240828548 1.791731559591348 -1.296129085771067
H 5.8946599636711285 1.8668069832272522 -1.748060865279377