13

C 1.0680482275087329 0.07953825835417025 0.031180254503240586
C 2.5712062614632702 -0.049164770516854805 -0.08025105142107156
C 3.2154790944051617 0.6031762339666417 -1.2221589065995668
C 4.501293070141518 0.6398482225322092 -1.5583726944638985
N 3.105639910487458 -0.7345019096164277 0.8643866149634236
O 4.468731535526691 -0.8554154104131805 0.7666893205369006
H 0.6629486593071482 0.6604276140175285 -0.7910220005216183
H 0.7908364286912302 0.5635044354804187 0.9705847020290974
H 0.5928712431824866 -0.9046022334429938 0.0189991869755419
H 2.5166457502250656 1.110277080902922 -1.868957690383697
H 5.283248555346748 0.17087498390082548 -0.9917919179101912
H 4.795250432323757 1.183217653459546 -2.456628646786002
H 4.686462374586197 -1.3840030988876653 1.549253460900055