15

C 0.8709598483770656 -0.08764793872751986 0.18696721143094397
C 2.3948356362884393 -0.0954027987341299 0.024753098671486458
C 3.1034346456249065 -0.22574396712309808 1.361991104217128
C 2.7915286938497266 -1.2679959424026477 -0.8684932511987888
N 3.415893106585464 -0.945264845438281 -2.021825858149179
O 2.5485899472560463 -2.4179064283254723 -0.5551088106452964
H 0.5691345733899424 0.724278009933209 0.8555187252768994
H 0.5513493485176102 -1.0300312594956802 0.629932509134834
H 0.3588706081438198 0.04183048699239763 -0.7634651434780808
H 2.697221902956615 0.8409858256964654 -0.45434989487222865
H 2.830090055639155 -1.1759823583006392 1.8365554500679215
H 2.801932176873038 0.5901494902586749 2.034537958780416
H 4.180679443856825 -0.19597955696775754 1.2488947871390765
H 3.6084522887678405 0.007911893142094827 -2.276938876824738
H 3.7016750708587796 -1.6810464847595825 -2.63619381468354