15

C 1.0268476036259773 -0.2572745057559463 0.058863663774413336
C 2.5490313529128357 -0.21137193050579323 0.03238834641033476
C 3.072153707156879 1.208809639052047 0.05818905707125758
C 4.591129757380871 1.286616811633178 0.03363910004292621
N 5.090571770496735 2.5515061101449588 0.0636531018291524
O 5.3070160941448625 0.3096979936816411 0.006222807478010714
H 0.6740130144207442 -1.2930152936234791 0.04406256487718126
H 0.6028769249519171 0.2513217883527363 -0.803842270890683
H 0.6244879323071943 0.2137211495501043 0.9558914265536129
H 2.935673061333767 -0.717696173584407 -0.8532019889716105
H 2.960947288049973 -0.7544822180899096 0.8862236130841078
H 2.71267022029541 1.7423672504861036 0.9553152232700012
H 2.690483183711117 1.7742380773329363 -0.7934284237183176
H 4.503508671550085 3.366759646647254 0.08570716456334854
H 6.0893100320967 2.670864904439162 0.050957765649891275