15

C 1.0477041881980858 -0.19589664826371633 -0.06581334000522031
C 2.4788539874972972 0.18710959238341965 -0.36412292763593224
C 2.8344032681201026 0.004103482500355098 -1.831282761620676
N 2.7526874798284053 1.5546687485926625 0.05836753506555893
C 3.645991992320001 1.887527961351711 1.0082683915683348
O 4.350559803493701 1.104564989140204 1.6254745877458814
H 0.8563259658929961 -1.2356048144956997 -0.33902757626812746
H 0.3416908251711632 0.4282609774636949 -0.6229010902688117
H 0.8201924916251461 -0.0900538095721672 1.0028174460696624
H 3.15106358217115 -0.43017872737227925 0.24740831907492597
H 2.203784946465352 0.6403281931393335 -2.466582613530534
H 2.6685146846727297 -1.0362681216557603 -2.1392767334248814
H 3.8728318894243947 0.26229067229900754 -2.0226244698562508
H 2.2268212482842524 2.298313355999298 -0.37548485901869516
H 3.6934787268260405 2.9728335889404804 1.170596442864181