17

C 1.4827402266724476 1.0421614764445117 -0.5941516489968597
C 1.5939704292072812 0.31093532067006774 0.7356578571636876
C 2.912430558781231 0.46747397449598793 1.4833976310984276
N 2.822891773761717 0.116034576432708 2.8985502280129287
C 4.058720682353224 -0.3555523638438689 0.9259342554723567
O 4.333193552801051 0.0026442946596465346 -0.40850289376850735
H 1.6632355806784618 2.109467917715599 -0.46728696803047526
H 0.48794145825161617 0.9208367893216558 -1.0212620130042842
H 2.214284461514132 0.6666557230050278 -1.3138640700371658
H 0.8005923204828579 0.6748233469242063 1.3948537939719563
H 1.4003213682780171 -0.7598892771873956 0.5930370514970837
H 3.216990030866724 1.5243772420218902 1.437535586982905
H 2.453925953680055 -0.8332846733361232 2.9922242388472293
H 2.163929517099625 0.7260109078519291 3.3671117862189353
H 3.7853541290223025 -1.4238537157117814 0.9864422637017717
H 4.9283236102410175 -0.19859533011527564 1.5689262784807125
H 5.110322463358267 -0.46947155545199803 -0.7088603457957722