15

C 3.1130070514681893 1.4973018682343264 0.29778837231987393
C 2.655149569170556 0.09361156621098493 -0.0626774881967107
C 3.2044710475714795 -0.9888481553597324 0.8538322351803523
N 4.6470309208400815 -1.095454216239043 0.818100271085811
C 5.297212640316621 -1.9192173289761043 -0.02773219513098014
O 4.759974899598327 -2.6496849535259845 -0.835869654527086
H 2.685026632288882 2.243851483059097 -0.37567988442649064
H 4.200563407728041 1.586580050045811 0.22633635798051677
H 2.8200647634078884 1.7617412465951032 1.318000020771182
H 2.934662766851106 -0.14323700102709808 -1.0942584272744722
H 1.5630602007914394 0.03729420008395299 -0.02634750876733124
H 2.8130984908529073 -1.9536429859199047 0.5715845124739907
H 2.908078906652345 -0.7906014457091096 1.8905096951619094
H 5.206568809661737 -0.5130081865460413 1.4241359682714227
H 6.394509867022646 -1.8624038141274528 0.07922411542360241