17

C 1.049831236616776 -0.12385365104046005 0.033415373132390576
C 2.567991284103392 -0.024124625983185745 -0.039765044993731236
C 3.0040879633539825 1.4085537400542802 -0.32571772086786044
O 3.1340128905584113 -0.4664969780440745 1.1920936451231274
C 3.1039696823689895 -0.9945042289281745 -1.0813689517200693
N 4.546778480071703 -0.9495766573338521 -1.1481760305971382
H 0.6516600448257246 0.5386361275618897 0.8070564909025003
H 0.7516700068556627 -1.1430344513393134 0.2836273480445787
H 0.5871488858572923 0.15663583880461948 -0.9125900073294807
H 2.663354688409774 2.074824355157456 0.46382420589681395
H 2.568772393558926 1.7659031953421136 -1.271099373233706
H 4.085978383726411 1.4572181275321732 -0.4132676652592428
H 2.968892976723469 0.2070759700514118 1.8676172829133257
H 2.6927871559912586 -0.7094957676517947 -2.060939945658165
H 2.69823590349273 -1.985907572113449 -0.8338621383007528
H 4.892707493578752 -1.6083332663772874 -1.837380157936515
H 4.930186169714647 -1.211071305013199 -0.2548197384744097