13

C 0.7192941352876276 -1.3791750842165598 0.42939848279205667
C 1.5675365450333172 -0.39525709213187793 0.16066473492330965
C 2.8056102130544422 -0.14756131076953138 0.9316119140987823
O 3.8899317962044453 -0.07884998484379536 0.01535727612855375
N 5.012366428950506 0.40816130717560944 0.651791661931211
C 6.014062192560983 0.4221304817268308 -0.11434834336915116
H -0.204818641760219 -1.5039490468146743 -0.13543220650393142
H 0.9095784415077689 -2.094816460532048 1.2157791630323944
H 1.3561933828386925 0.30928839955360565 -0.6456053973133054
H 2.986188229314693 -0.9386129773310536 1.6711955764520312
H 2.7509718214824646 0.8102450921739819 1.472286082389696
H 6.9383332549317 0.8101507011320062 0.3090641267122164
H 5.984893274176477 0.07723075977675961 -1.1470107228855273