15

C 0.761598930866239 -0.4463383898007813 -0.373233219409072
C 2.2454935464519257 -0.17294355624165014 -0.21150885518631043
C 2.8337572116063 -0.9357355078372062 0.9440149071251864
O 4.217069820011312 -0.6174705305397868 1.0228340603538726
N 4.788172394452809 -1.296426506997725 2.062251118483194
C 6.025292981020267 -1.0416469790819072 2.1758689611335162
H 0.3480447098560289 0.10937856142592949 -1.2146843011897357
H 0.19305618895502158 -0.16443179554489212 0.5165974776085039
H 0.5637467026267022 -1.5104788620425 -0.5538987943440002
H 2.4126599202898786 0.9039761949476506 -0.0503576828115625
H 2.776307906539883 -0.4373033123270425 -1.1220058144474263
H 2.713994456410648 -2.0171580864302903 0.8024718227792108
H 2.341761670219355 -0.659779713602925 1.8939562064760114
H 6.5522654575859 -1.5431366234791322 2.9763188466819477
H 6.544850449467025 -0.3553180706658111 1.5038725663411454