15

C 1.0370742521273362 -0.08993336820820808 0.1576117998798979
C 2.545251395056628 0.15391828979002506 0.001196667298399625
N 3.2086639582826657 0.6003782637784362 1.2167229182629224
C 3.2111917294872656 -1.098921527295303 -0.5079750071314603
C 4.6005421746212 -1.4294968715905763 -0.23797542848951497
O 3.546548435617333 -2.075385328168101 0.46033846201140344
H 0.5343384878384266 0.8125805511765335 0.5020256436815836
H 0.8628159549126048 -0.8859164887971411 0.8846207551454958
H 0.5748392613785482 -0.38710498061687315 -0.7875362300386873
H 2.693333363505862 0.9275181938976884 -0.7624353618135845
H 3.14114849569918 -0.12471505686958044 1.9116680555227947
H 2.751066547945945 1.4227522124410983 1.5854680938242318
H 2.761749891627889 -1.5118441766500847 -1.4126191842287616
H 5.191534910982785 -0.7375833914350947 0.3587938051501524
H 5.146714617450262 -2.062089565295976 -0.9323910744958732