15

C 2.4446533355722764 1.1481807426623905 -0.9568490636321347
C 2.621583779262188 -0.08088841821793205 -0.07419331561093188
N 3.0989361613144517 0.23292823825599973 1.2500447345975312
C 4.401770903456891 0.12791387419300845 1.6044473013418867
C 4.73294334699394 0.5467219230579138 3.012032172119904
O 5.258929766213799 -0.28473115739050503 0.8379637204759596
H 2.0861410413104435 0.8721397256072078 -1.9454091764374062
H 3.398709509894413 1.6672279430619974 -1.0703775706409562
H 1.7321409880366856 1.848753116431423 -0.525690863043842
H 3.3590032118252333 -0.7500130170437027 -0.5170811533969731
H 1.673599751722589 -0.6242393086326568 0.00788654470527032
H 2.4506136193225627 0.6359018653278221 1.915130514348459
H 3.869669011429946 0.8758989324690384 3.5942196288681343
H 5.4728675098076085 1.34626013209857 2.974203742523832
H 5.1987239087551815 -0.3040154018020372 3.522031783037581