15

C 1.3547165170926805 0.3512354387516418 -0.6522093146917525
C 2.856304719139333 0.13665099759713917 -0.5749542754849013
N 3.2431441021978715 -0.35772092864460747 0.7356015112076755
C 4.65206074844955 -0.6249477057830517 0.8653741309656028
C 5.0305468956052355 -0.8655341112171078 2.304514655998805
O 5.9185452063815145 -1.5778608191822285 2.6648453264697474
H 1.0714293857970922 0.7578408620444571 -1.627828263200788
H 1.0269933483606706 1.0495357738255209 0.12331172839389491
H 0.8092718862792718 -0.5846178843007004 -0.5102361472602585
H 3.368585611766028 1.0875218537420932 -0.7411683848397286
H 3.175786520443756 -0.5343292340098785 -1.3839788172781902
H 2.70577857177674 -1.1883197930478222 0.9490433573338154
H 5.200017584044481 0.2764545661969389 0.5582820895098773
H 5.0392284079531535 -1.4592483340859446 0.2566242339994871
H 4.4143634673356145 -0.2962651996634084 3.036264817324164