11

C 0.976054425435126 -0.07169409972465512 -0.05633261973274657
C 2.46950310005055 -0.05900940095519287 -0.13408316621644836
N 3.16814568625563 0.13469589708388577 -1.1922224768665868
O 2.4007338507922404 0.3447239533083452 -2.308702625518383
C 3.200385893556329 -0.2859818692656011 1.0593298294621858
C 3.7489653019629854 -0.47684483413593265 2.118721920705007
H 0.5264883419452758 0.10526593773624512 -1.0330462138863385
H 0.6391657138992385 0.6847483317810819 0.6518535835249499
H 0.6411906803023931 -1.042171969165494 0.3266025337677085
H 3.0602312573704467 0.47854052284804677 -3.001248822877141
H 4.259216865342075 -0.6541265370190812 3.0383278628383006