15

C 1.0535448924017892 0.05540796947998069 -0.2876592545921357
C 2.5604944858717387 0.11973148509416806 -0.1006227194564081
O 3.205265213711194 -0.940059810109181 -0.7938428502993318
C 3.1249215643363093 1.414530893941595 -0.5956676468025016
C 4.5279668519033605 1.518036326191511 -1.0515131531421813
N 3.422843185095637 1.5895105956356794 -2.011614418621942
H 0.6446487320908066 -0.8883716996926554 0.07973831222151712
H 0.7979972672183874 0.14719746485814475 -1.3515887272205362
H 0.5599546949616236 0.8628656967620983 0.25740943270284766
H 2.7901952103648577 0.037264610405137684 0.981212772435396
H 2.7461503248146246 -1.7565596915048682 -0.6075784835607605
H 2.6729271918126325 2.2908191900310406 -0.13346477165224133
H 5.1282580164688 0.6164153220143676 -1.0241256692264977
H 5.067507611883387 2.4468651482367503 -0.908485973591504
H 3.344291667446922 0.6856512619835469 -2.4647590240391546