17

C 1.1437634881986738 -0.7199549449103008 0.2550478042271466
C 2.6271366564484167 -0.5000173955935209 0.04658732191300743
O 3.2381915582771534 -1.7323659612111266 -0.2424052825154549
C 4.620667281959931 -1.6290695847235348 -0.4592522484737783
C 5.158385909822249 -2.9831657208135485 -0.8379433214294962
N 4.5907257157524155 -3.3983020935892836 -2.1172707986381574
H 0.6499178689611356 0.2196910578056646 0.4801292249950773
H 0.9766944878166667 -1.4115331379854648 1.0758553956245847
H 0.6950907856429898 -1.1496916114010052 -0.6449130107291207
H 3.076260220010051 -0.05843599913143103 0.9413939377243268
H 2.7991871727329545 0.19967630573214745 -0.7853452642185422
H 5.1214275130972355 -1.2735325522369179 0.45446947850483804
H 4.8305564969331956 -0.9104977448053205 -1.2674832832143483
H 4.954600394869851 -3.676642892686024 -0.009896301747629435
H 6.237778206575292 -2.9049017635632413 -0.9409630437701083
H 3.5856807870994456 -3.4240113846375104 -2.0355571695750805
H 4.899886760318717 -4.330617751618787 -2.360281106546382