13

C 3.410971966740773 1.1778162379337052 0.80480117147262
C 2.609236770020749 0.1292542610793119 0.05076095347355581
O 1.403400148449112 0.08738850843314455 0.18778986769921466
C 3.297357519329089 -0.8106352696020531 -0.8141256188636788
C 4.624885161965214 -0.8177873923487405 -1.0189285220953277
N 5.313118432519057 -1.6745810296974781 -1.8105831740625686
H 2.7276484426661263 1.7778587608682914 1.3983778491508072
H 3.957552164235956 1.8272677361810539 0.1151131656558841
H 4.141522329864027 0.7128324578244487 1.4698236328927021
H 2.654900344325524 -1.5254916771696534 -1.3195183347891952
H 5.260048034348722 -0.09576235246196167 -0.5027488964471988
H 4.836300788484437 -2.3839619597466983 -2.3291100767075257
H 6.29959309217659 -1.612207806930801 -1.9020286528920212