11

C 0.9705847948703162 -0.21063897683470093 -0.2841777545432141
C 2.3390922406226173 0.13693496063515756 0.18815233953378785
O 2.73066368172047 1.2675228192907244 0.3288235225511362
C 3.2805162176484712 -1.0117056653638954 0.5709044859841972
C 3.0007554614969427 -2.288962498229617 -0.05129396243160014
N 2.7524106220289495 -3.2915988495478756 -0.5576449521090303
H 0.37054316570427354 0.6946473522851848 -0.40690162154382165
H 0.4785909329797276 -0.8975378530438007 0.4131677612066519
H 1.0319581833886067 -0.7400159713434161 -1.2414119533325807
H 3.2183994068702817 -1.119407752497959 1.6622790795197842
H 4.30047715102757 -0.6917795929786468 0.34266719901592835