13

C 0.920223528496741 0.04507002294817377 0.06152254781402905
C 2.4265634690996465 0.11405086476100194 -0.02880897137791202
O 2.8643546693918873 0.5746879944107713 -1.2879533289504046
C 3.0003959460608467 0.9856574516067805 1.106355783264036
C 4.45270405941417 1.0219571647390573 1.118106233185461
N 5.5952088411694945 1.041168184389802 1.1410728800624392
H 0.5281733037065204 -0.5635146486453133 -0.7574541107228421
H 0.47478464905278234 1.0448991598550241 -0.018007368057449753
H 0.5910847629000947 -0.3901854192114169 1.0039750177363505
H 2.8460512227246975 -0.8873195156405215 0.06467554754891389
H 2.4373525385059334 1.415527765972029 -1.480962627473524
H 2.6561180338671737 0.6079047984295043 2.0722946031692038
H 2.623746167944356 2.0121570334211807 1.0079266730835017