13

C 1.15869293992794 -1.2283775798245418 -0.3727227110592123
C 2.332365715413958 -0.32272726361371085 -0.09127057565110343
O 1.8338644876253445 0.9569558828831162 0.25533128963760365
C 2.8268390047394516 1.876051593135182 0.5772504580368756
C 3.6714247209235498 2.2488765338338537 -0.5712768811363566
N 4.321420104641207 2.529469673637805 -1.4711848963452634
H 1.5185535959516236 -2.2253617162201675 -0.6471705561261771
H 0.5790098961001957 -0.8396211051501069 -1.2125982957452766
H 0.5111904489980557 -1.3161759403011182 0.5001864687270571
H 2.992685291159307 -0.2452707109583626 -0.9621263931279838
H 2.935620553179562 -0.7187806930972707 0.7450452000648778
H 3.499587575074803 1.4940101622243103 1.3750688880381925
H 2.3433435102314313 2.776281157374904 0.9511346714397456