13

C 1.1802958638607026 0.25232223675174276 0.02161427731805883
C 2.6905159733509625 0.3309219988814253 -0.03801686719506084
O 3.3012739019575186 1.3683604027853844 0.03562112775387957
N 3.3046530387188504 -0.8834510621918917 -0.20300238939738843
C 4.6851155841434124 -1.037760329072372 -0.2825946009065224
C 5.309773345260639 -2.191154191535309 -0.438886126054069
H 0.7817664662394835 1.2544216702561273 0.1473864500819448
H 0.8620445555523495 -0.3680787096616927 0.8533025750958875
H 0.7820962628317853 -0.18337424061758778 -0.8982469387719845
H 2.7307147192940304 -1.7102344176659057 -0.2682372999207557
H 5.20191546732251 -0.09097029140404002 -0.19916679478119054
H 4.780319498812689 -3.133916640160779 -0.5086881972100215
H 6.393378540345904 -2.2247051545600987 -0.4907006845424008