15

C 1.282685776460923 0.08830586355989838 -0.35172182329076
N 2.6292597041473127 -0.301104210037009 -0.7040438759434611
C 3.4351139285126124 -0.6487970974500358 0.4410335980848901
C 4.789803168579402 -1.1325727487281683 0.005890549178846967
C 5.946700203651657 -0.23636334491726202 -0.03125847392981353
O 5.786070563028396 -1.1878862827993226 1.0120246663620152
H 0.7406519417237569 0.3795783037700997 -1.259484195135013
H 1.2296230152562175 0.9212011286509258 0.36379480787788243
H 0.7519050215927037 -0.7638113437316603 0.08883984117534013
H 3.0838848258942444 0.441016211776939 -1.222789735666165
H 2.9300970416272873 -1.4535292860349533 0.9899477165461873
H 3.571522010943082 0.17653377983494284 1.164967086158888
H 4.776357456425441 -1.9859110970392293 -0.664042620605967
H 5.827296829546024 0.7953595867012492 0.26694589171406774
H 6.753522678914833 -0.4399342799233861 -0.7297865883028503