17

C 1.0535869582549553 0.01915482567629416 0.09102361414136778
N 2.491013133687592 0.12944344899057708 0.04412756567865137
C 3.129711422603102 -0.22388612289963122 1.3056901538618895
C 4.643763968043387 -0.1765786078647366 1.2103085295284155
C 5.217791811803253 -1.1885097662975281 0.21543744335002205
O 4.8288015159464015 -0.9231451252877386 -1.1099595464690206
H 0.6224118216017576 0.3677985828563132 -0.8595181698436273
H 0.589520995375752 0.5855806979082173 0.9045997120612598
H 0.7713598951012817 -1.028352138628608 0.21372176842898238
H 2.7563502743043826 1.08096563746947 -0.19495560031938589
H 2.8209850496316697 -1.252856201685032 1.5578506704462298
H 2.787222065076622 0.41397784176441027 2.1371704892458636
H 5.074248212912932 -0.37300441893967673 2.2015662157789118
H 4.975845525712348 0.825892486742237 0.9244636471309878
H 4.910698361840545 -2.1975961175897174 0.5262909749310287
H 6.310712294237041 -1.157947270591904 0.24468126414214741
H 3.877942970878352 -0.7180369961423663 -1.0777384928855105