13

C 0.9324063933412426 -0.0032946789483273764 0.3550843896594103
N 2.3673578644738478 0.03990155825796536 0.15151841067833058
C 2.939560477032015 -0.6317036959056596 -0.9091779745022212
C 2.2939932802660166 -1.3474485090359796 -1.8311071012668947
C 3.144476610439965 0.7372323699507546 1.0214141601221678
O 2.7452789648418277 1.3524063442610266 1.9815364153654562
H 0.4205152143419389 0.4105201411014661 -0.5113086528408044
H 0.7099390544766653 0.5763290548872291 1.2389912300005148
H 0.6004291316507223 -1.033897941722103 0.49821777081200014
H 4.019477221469809 -0.5248826906527293 -0.9540148006731344
H 1.2225048091936597 -1.4804182615742083 -1.8173183630971688
H 2.8524339239199916 -1.8280701530241967 -2.6224667165497286
H 4.2194179337760715 0.6840894057671171 0.7543916741124537