15

C 0.9868952083984616 -0.025070467607133436 0.040579358910998516
N 2.4289366778647947 -0.08666144128950315 0.04146380175275162
C 3.2077018519820575 1.1354555736568868 0.013301995186018718
C 3.1402047173853243 -1.2464234645272474 0.07044967466141588
C 2.379824677524276 -2.5548581014057463 0.1043328149532539
O 4.355368309198835 -1.2350596977548773 0.07664499588529126
H 0.6768917564119834 1.0217140856697124 0.014136616544650258
H 0.5517793198735127 -0.46953439755226273 0.9432000829761696
H 0.5439500349567777 -0.5118118687545874 -0.835830569890308
H 2.5313491974086424 1.9909727968705744 -0.01044136601023388
H 3.8523139115541594 1.156019667764204 -0.865742441084385
H 3.8552715951405445 1.2029061781561645 0.8911817666631153
H 1.2947490593457318 -2.4776853046872884 0.10129023588678167
H 2.6997187054920784 -3.1011556886544547 1.0025917887610287
H 2.700890195224864 -3.148929915733578 -0.7556571492389453