15

C 1.1231854258198453 -0.0430093948926594 0.08961930828492821
N 2.539501145144416 -0.26402768969459217 -0.13120032068195617
C 2.8433220061477407 -1.671313429642005 -0.24551213082849058
C 3.040606296621846 0.48707984615510314 -1.254637710823683
C 4.545340538940918 0.588043272489896 -1.2260289300103207
O 5.233030943212826 0.7215958933651749 -2.2043256461387677
H 0.8074323130233182 -0.5681996879275818 0.998228332346626
H 0.5019144268454684 -0.3956521579381568 -0.7455412885132104
H 0.9273930705511438 1.020350077685804 0.23898820465070558
H 2.533450023988803 -2.1930725419158725 0.6593868817194479
H 3.920481466419613 -1.816982930784794 -0.35495371617993604
H 2.352512484360401 -2.1433823845040383 -1.1032308050516715
H 2.670809440712163 1.5127040064273571 -1.1917015377181737
H 2.7276906153480196 0.09531065474761004 -2.232974403576223
H 4.976798067878861 0.5656859229050786 -0.20255257461562903