13

C 1.4010935516569394 0.351181918291563 0.555603453436165
N 2.726029649471371 -0.06891748378672666 0.2041039101204909
C 3.318565822807362 0.24650922352236934 -0.9653217635389872
C 4.5646919695469235 -0.1034263311900091 -1.3752687131953198
C 5.02644341406729 0.33683297816340435 -2.66054565814477
O 6.111832775956324 0.09777124079563207 -3.142879382351913
H 1.1528943658266355 -0.045906543647293616 1.5422437875534352
H 0.6552847330003345 -0.02951934723914883 -0.14643974192289647
H 1.3138036667927353 1.4344141606513328 0.5962366674202086
H 3.246891895167955 -0.6334302935263287 0.8588434373094427
H 2.712373088071044 0.8534759763245118 -1.6217144145678555
H 5.230008561671584 -0.7125211498614361 -0.7625189375252075
H 4.29245690462297 0.9549058555681378 -3.2292404022802863