15

C 1.2730480930492942 -0.2749349808203357 0.3243347316293227
N 2.7166002866378998 -0.17013994491775078 0.3961786643819597
C 3.1922574265906403 1.1934877245663307 0.39701530252118233
C 4.670125258386701 1.3363621281589089 0.7006147249538881
C 5.296424178567949 0.3204772320017401 1.6038006249442796
O 5.2901045120233885 2.2708093946511685 0.24567812772167494
H 0.9818845172797122 -1.3246229599308637 0.2761259282152525
H 0.8272373152421428 0.25201809936312863 -0.5366363052676808
H 0.8315522425810243 0.1472631881192661 1.2380083089658445
H 3.124418013230233 -0.67543246718109 -0.38135248390757487
H 2.675019182688778 1.7269880291162218 1.1997442176505073
H 2.976488181411277 1.7591080659460194 -0.534375722330704
H 4.666348769252206 0.15017314078009847 2.483145153285507
H 6.294053554557811 0.6491588601270202 1.884414289587452
H 5.357346254764983 -0.6409870943433916 1.092937881541174