17

C 0.921238249597288 -0.10658872988757281 -0.5336289553488109
N 2.283291463813035 0.20560184563311143 -0.1539011908957947
C 2.8867203878047185 -0.7990933811837643 0.6898070058602828
C 4.252734715923197 -0.3593195924037735 1.1427738079750773
O 4.1151746647020495 0.7898282806564498 1.9484918454036877
C 5.351218807763366 1.3092230319961247 2.3661009152243584
H 0.5033988288845223 0.7083307145809373 -1.1135794510724817
H 0.2559787194519989 -0.31570681329021155 0.32083747437099625
H 0.9253646405094924 -0.9987072089046218 -1.174625283865273
H 2.3069179467386185 1.0910772067907506 0.3328304865570436
H 2.9857582048914635 -1.7249243980870617 0.11684230242066063
H 2.270567815849714 -1.0286157013941917 1.5780959593107873
H 4.882381535071819 -0.1443166667539401 0.27482126643998567
H 4.72827708924142 -1.165618958305241 1.7175633164388868
H 5.150492425157024 2.190572776807483 2.9644814390740315
H 5.973330394283056 1.5957938801390734 1.5052345360748167
H 5.905486107955205 0.582213939680444 2.9754694615266226