13

C 2.2064677033689266 0.08185694765032278 -0.502989745421826
N 3.414740028282555 0.10215579885714769 -0.14018414524702827
O 3.5735148988136918 -0.4490236832363318 1.1147441157897944
C 4.921453604239796 -0.4155334165105429 1.492717368932072
C 5.473220983317597 0.8321869024599942 2.0951542669679246
C 5.1683211509309235 -0.37078062451406857 2.9553143055021636
H 1.9966931687901222 0.4962159953902935 -1.491122259174528
H 1.409796226708661 -0.3153169721251764 0.1130955150813716
H 5.56595323931516 -1.0248912467027496 0.8536164047708938
H 4.797029367723755 1.6709235280313213 2.1632167968972404
H 6.505492703798759 1.083204436144709 1.8968584805403146
H 4.293786711362389 -0.32060780067583383 3.5823893105071316
H 5.9853483085084545 -0.9591702929945065 3.3563403392877396