15

C 2.9095088736756396 0.06244840780767731 0.9247903111891909
O 2.0796529844472773 0.09667483523204903 -0.20886334502713452
C 2.7430477302774525 0.5644667182648564 -1.33619560468885
C 1.9041805575122057 1.206014589020747 -2.380352627266126
C 2.856751714331219 2.0478113286829918 -1.5827763240308357
N 3.977507932265587 2.6635083461893587 -2.2325871841435077
H 2.3058016493148705 -0.3126688463558387 1.7501017079856012
H 3.2921694399544057 1.0618880431205975 1.1814131351922694
H 3.767831996296487 -0.6066804211160511 0.7727421329038896
H 3.5835682360148127 -0.0544612816497329 -1.664236496792289
H 0.8538186607834447 1.3070916820845733 -2.166694764907198
H 2.1447841097134694 1.0080530859377939 -3.4212360467597125
H 2.3958028630799424 2.664798104231296 -0.8295870395314732
H 4.172509279362485 2.2236014449828967 -3.1266322824900015
H 4.8181967106854104 2.5964719435628822 -1.669774420340715