15

C 1.5817803925331477 -0.6904609636712563 -0.7067643147093985
O 2.920349167837812 -0.2628092025973903 -0.7796077178758898
C 3.20978299221358 0.7479411176205959 -1.6220319595456147
C 2.3343669405514085 1.413053655699409 -2.3667886813919123
C 4.68029203730285 1.0313762815736927 -1.5851035953225632
N 5.4490920911359515 -0.14824738715815272 -1.9542980791690163
H 1.5464737565518332 -1.5154320259232295 -0.0023280666738431806
H 1.2238328962314307 -1.0234711394756058 -1.6897649264827996
H 0.9298918429592663 0.11787867896371441 -0.3460034142961281
H 1.2708447628587278 1.2034885755093878 -2.359989901164648
H 2.6846899626456344 2.199724177579813 -3.0211220840726725
H 4.913588169959587 1.4180757318611246 -0.5725947626052547
H 4.893795741478781 1.8343194024760305 -2.2913794029988006
H 5.214026105080076 -0.9107484735047799 -1.3221966176996829
H 6.435148888407654 0.03207196945475936 -1.8398029458356966