17

C 2.379706587658561 1.6248851288508284 1.8433564881638127
O 3.4741575186098994 2.061950369767481 1.0692242460975752
C 3.2272248165977926 2.0680775079250324 -0.3277652930878633
C 2.419607143749143 3.27845670225301 -0.7474001776385732
C 4.591638526918324 2.0381808886038844 -0.9928192619915831
N 5.288940088322028 0.8098500786513204 -0.6569871039189742
H 2.712431234094567 1.5958729999166459 2.8775877627948017
H 2.050913762662134 0.6226061184985219 1.5422544205300084
H 1.528057419246798 2.3091028053920297 1.7768037593623986
H 2.6994325504794774 1.1510118289200264 -0.5977228683882597
H 2.949375804856163 4.20433592837065 -0.503517956575589
H 1.4482129473750076 3.3078774809242084 -0.2510166744504689
H 2.238044737412455 3.2587252578807173 -1.829941325396959
H 5.122832226758249 2.958766334621657 -0.7081785192353521
H 4.440808257730422 2.0713893363536644 -2.0759150534726785
H 5.392152834801672 0.7680698166528348 0.34938590082396087
H 6.212565199127009 0.7987829162659913 -1.0620455921702712