13

C 2.372796818165332 -0.9289802156076385 -0.7918233309699677
O 2.2445439201666235 0.10247997644450031 0.14927085045935518
C 2.808927559998225 1.3218622045503694 -0.2537705350319194
C 2.431572508330715 2.3879434491626044 0.7553741962028948
C 4.275469779180164 1.2105651851441177 -0.39433368468004326
N 5.412820120618664 1.1115947865839297 -0.496138319288453
H 1.863686321132472 -1.8050335114871283 -0.3755529770839239
H 3.4209055397262076 -1.1894074902725675 -0.9694580904303656
H 1.9066957517059766 -0.6606425840028933 -1.7476134377010426
H 2.4207043785001527 1.6000156555683436 -1.2496753920439638
H 2.820111675888183 2.115186550865887 1.7406454496302293
H 1.3531662693805755 2.4699166150488274 0.8101129418199848
H 2.859712959052345 3.3525788056171053 0.4746840766866297