15

N 1.1577430436903968 0.2425752269254915 -0.2721578032873031
C 2.5630080819527024 0.31660055650734786 -0.00044635132552025723
C 3.0555472515707933 1.2707243940043242 1.0973928030328792
C 4.2168287593341995 0.28944791279475124 1.3653701185849905
C 3.354451213655971 -0.8025473170840813 0.7078124678666049
O 3.9317459504664556 -1.7561704834188487 -0.15217771762961202
H 0.6433501627726095 -0.05618492668490381 0.544681225111544
H 0.9632818387753748 -0.41643317195774454 -1.0227121347341765
H 3.0949285213069935 0.5411018877163103 -0.9291698171593975
H 2.3541024337845053 1.2974120483612128 1.9300862480051622
H 3.297918335266173 2.295326438745736 0.8097674534156714
H 5.075850539467157 0.5128490893680657 0.734677634606791
H 4.544997976598972 0.13669100749396113 2.3999172327095373
H 2.70571181678764 -1.2810091947525897 1.4525399799385026
H 4.377844986666664 -2.422672687452679 0.37553192999313645