11

N 0.9174026203735868 -0.055252927835495055 0.004812900660558393
C 2.2712729445427846 0.10429472385477918 0.0035491315909192355
C 3.0915635482621853 1.188243354558905 0.007795851998663565
C 4.428055604019178 0.6468737637434616 0.01731305324792093
C 4.310270978222498 -0.6881705827582664 0.018890651335385228
O 2.984538018752424 -1.0408429197141509 0.009360869486600304
H 0.3160643758440855 0.7462566273156432 -0.0015182514476844134
H 0.5219902069686613 -0.9738274753050266 0.007040587689310036
H 2.7993507845238037 2.2262469762799677 5.171922710610951e-05
H 5.349718907097627 1.2087171598582624 0.01831899719486549
H 5.00527168718317 -1.5084236321330804 0.0215759145352197