11

N 0.9125399077332502 -0.013095354902172257 -0.09479134468912902
C 2.285686986590305 -0.009702329835404947 -0.085087768979792
C 3.1445642616671083 1.048168128372227 -0.08441544753448425
O 4.429683131290668 0.6026401847380608 -0.07455044349850035
C 4.39032621345399 -0.7308604604018204 -0.07741409908771144
C 3.1140765029126487 -1.1801249535932945 -0.08279784487143023
H 0.3920213970502932 0.8448987439725897 -0.0961431371759314
H 0.402563594001206 -0.8639344638751949 -0.08999209507955576
H 2.9999935214813527 2.11031885502199 -0.08018242892744996
H 5.342078417637786 -1.2409626449492384 -0.07604805064519085
H 2.7874914003371267 -2.2056374960477916 -0.08600451882164117