15

N 0.951280549633911 0.034261916019040245 0.028349550478084927
C 2.3890300671632914 0.12934678087872584 -0.004731823694394506
C 3.1874219952398213 1.1638859115140303 0.8285149218066026
C 4.237100206629878 0.08825378957906657 1.0891089891156374
O 5.269405851763262 0.20973767664700693 0.1398091162743987
C 3.1766822071481524 -0.9758579009424841 0.7099880777934832
H 0.5191917540547071 0.7909564649015313 -0.4771006101752273
H 0.6119644704517935 0.08226641894023552 0.9862390588009285
H 2.6920658268099444 0.17930246768785763 -1.05530411984162
H 2.652417031702306 1.4292370203353502 1.7428686498089692
H 3.5375050179401817 2.071957528591134 0.3364976186535383
H 4.651375005434036 0.028951890347537465 2.1005111379013766
H 5.79696311463261 -0.5907225418485166 0.15298423788352494
H 2.6426475506803184 -1.3204747528923018 1.602927964873168
H 3.5052700166730175 -1.8431743366746882 0.13865540763608125