15

N 0.9236261050368508 -0.02894999444488763 -0.10948080644991662
C 2.363511299516653 0.012860532985700002 -0.0289666130450592
C 2.8017260550519336 0.11918883115868355 1.416070105004807
O 4.190532222053086 0.12227659436799301 1.61315256662821
C 3.2187056436545665 -0.7365869288276136 -1.007873173238174
C 3.111135840385306 0.7632790113124399 -1.067990145825664
H 0.5667463224377756 -0.9612722924526168 0.046771625229370076
H 0.6018960187497421 0.2850728392248453 -1.0129685067367329
H 2.3188826858018836 -0.6753358648942174 1.9969614161402796
H 2.4312432678096707 1.0739114158031158 1.8186457911895346
H 4.5154204311510355 -0.775667872034511 1.4763133516768672
H 2.708373981747358 -1.3135228919333013 -1.7754706361724493
H 4.164881963868124 -1.1524511614690047 -0.702826480417498
H 2.5515151055777885 1.2127353384459691 -1.8737730762989433
H 3.969648186489504 1.3337548200483351 -0.7351025180393648