11

N 1.1033604574388762 -0.22465322418354086 0.4815281107937231
C 2.2281691358993467 -0.0758139419310168 0.282727816937494
C 3.6481358966800297 0.1542396088014991 0.029883415735400747
C 4.33593198195586 1.208991365621888 0.9236957475837217
C 5.19095653437008 0.03275458507812696 1.40430808967643
O 4.480319127139989 -0.8934543750036539 0.552740890765221
H 3.794945987904747 0.2872912527538969 -1.0427498212791648
H 3.688725263171972 1.6583522415984655 1.6705273076008247
H 4.858533780880711 1.9844748761780329 0.3636592346482243
H 5.085454625503751 -0.2321847648661324 2.458804989703423
H 6.254118385795515 0.072224468798249 1.1408696965362952