15

N 3.0627655890709593 -1.235511353362768 -0.211499127114139
C 2.460803922381226 0.027482597548563085 0.17254229603498608
C 2.990547644291221 1.1621282569697842 -0.6761839061285881
C 2.55694746984897 2.5762311462876073 -0.2587770357180454
O 3.903053016608961 2.950359860617084 0.07539981488808868
C 4.400592052112448 1.671340779096661 -0.33270062390367716
H 2.6748474742860044 -1.998610011577481 0.3214877437425306
H 4.0534078145828465 -1.2223426392724648 -0.018740888460397467
H 2.600017539923548 0.28802968844488064 1.238597093879012
H 1.3793749121387258 -0.05447645868791531 0.016147979255915577
H 2.843278040375292 0.9277081130865106 -1.723185155217141
H 1.8865341095093653 2.623896371711582 0.60695646674537
H 2.1550326101558572 3.201068012216894 -1.0584633551989757
H 4.900512923357113 1.1428530373330343 0.4931883229319456
H 5.087704294459526 1.756385769793271 -1.1764834035204152