15

N 1.3084265693220005 -0.5224640636826843 1.0195791548289979
C 2.333096638457299 -0.03113028304755245 0.11938565056570648
C 3.0417056257468307 -1.146144244428033 -0.6305066429142213
O 4.057858549778942 -0.665085601087144 -1.4597568283407893
C 3.212847036344884 -2.509458249125396 -0.03460108950510034
C 2.267960201851963 -2.2826092517050505 -1.1929430599490887
H 0.6477543295566254 0.19928968628596602 1.2463413345063281
H 1.7105550319759557 -0.8446689675469257 1.8875602274064383
H 3.104793454751683 0.5712972905260273 0.6153485041925411
H 1.8668412820226024 0.6143173505234258 -0.6248606303364915
H 4.791519565214972 -0.3859863635618396 -0.902938770232731
H 2.772060431255204 -2.7260202458830816 0.928766034778875
H 4.149798008513615 -3.0089148497744085 -0.24715940635367975
H 1.2137975776353633 -2.320320892083342 -0.980619383744691
H 2.5827190334645356 -2.6392214256972335 -2.1702441101435195