15

N 1.289276351241107 0.04819599932262325 0.3981995191779339
C 2.6265968448433945 -0.07652159281889458 -0.17470384212700496
C 2.9343876737569166 -1.4698628531957134 -0.7122826391725389
O 2.7307920808817046 -2.465569575209067 0.27247402790333725
C 2.8289114824654717 1.0243959996799208 -1.1645548914627184
C 3.237362447142781 0.9053599816516682 -2.4234662704678565
H 1.1211427959895368 -0.7587011113576752 0.9972261875422617
H 0.6077737184874306 0.0035555753909982837 -0.3384523011913573
H 3.3339074126927812 0.11636480203766286 0.6515978578804921
H 3.964797799874582 -1.50641077900152 -1.1026865094796785
H 2.2548624626261287 -1.7067015143392386 -1.5315547443570134
H 3.433674134808686 -2.3884563861400268 0.9291242934494307
H 2.575017053422723 2.0146998452592495 -0.7790267407714075
H 3.498450031069663 -0.05118916689777228 -2.860897888445108
H 3.338664640359261 1.773117144666138 -3.060558282144216