13

N 1.0258404382273767 0.10200045703254657 0.0007964498481367035
C 2.4804389610119983 0.03129879205551945 -0.03847131998047037
C 3.0291529861036146 -1.325807318012241 -0.5226972271481221
O 4.424641147688462 -1.390084915316921 -0.5018638371667606
C 3.0223334596389084 1.0908959207678373 -0.8827276630014084
C 3.5147290131869675 1.901424815004924 -1.6190308653757746
H 0.6603237150868334 -0.6428911363151242 0.58075972426076
H 0.6460687525249292 -0.003259366723646702 -0.9307461367838734
H 2.8468603409343163 0.19448222775122076 0.9834493255789839
H 2.6137580071783364 -1.5308100179975492 -1.5259204816312106
H 2.6657628548417307 -2.0998139519707695 0.14895362563390813
H 4.756822863173881 -0.6720589675999815 -1.0566451712347478
H 3.9274023073335624 2.650533603351574 -2.2536698461595837