13

N 0.9950084648755595 -0.12219147602749729 0.05481120051865977
C 2.317994439498389 0.15073038094956684 -0.08224539863227569
O 2.8522562101346156 1.0447006531247534 0.5468669544829592
C 3.10342332403037 -0.710961763308475 -1.0140968377774606
C 2.8099713260856722 -2.1794141962067477 -1.1745888091411405
C 2.508205541615724 -1.2364280487907096 -2.2886856359092485
H 0.45011840276137227 0.4729635042419634 0.6680813865693451
H 0.5252678876648624 -0.8382358800895997 -0.46511614784201655
H 4.143272295195506 -0.41100370419974436 -1.0300348604600231
H 1.9784584990493916 -2.5961355023464767 -0.6174883909295044
H 3.6567023376049104 -2.8429466106586037 -1.2684070109597265
H 1.482112036785337 -0.9997127167747902 -2.5181959620074545
H 3.155186381940619 -1.2513307675817846 -3.161617761736615