11

N 2.5748193285276697 -0.7581238996850213 1.13510045321935
C 2.0586881478609897 0.06985542791211835 0.20782665353793425
O 0.9084350009323672 0.058759913104111675 -0.1491943684384484
C 3.0437760843789206 1.0535475319313232 -0.42655443927938225
C 4.419755813597956 1.0028033618160235 0.043662018914930587
C 5.548292772017886 0.937761079581537 0.44604769113905934
H 1.957806094533581 -1.420134241541735 1.5788925639367994
H 3.5471887631005155 -0.7183263893790237 1.3882975191883757
H 2.626658919488627 2.0499555929307327 -0.2614554521335975
H 2.999389896934142 0.8823888942623095 -1.5110743145020762
H 6.555422218402044 0.8925066706023693 0.7944999979012146