13

O 1.140570178529393 -0.10831309118755884 0.48366345268398114
C 2.270509699718454 -0.009575587418356098 0.0661645609935796
C 3.1063125913333773 1.2582535132040757 -0.03307439984987256
C 4.301197107088233 0.8673369401357631 -0.8933402165825178
C 4.40835116179753 -0.6488010951348961 -0.6791711101321408
N 3.056429501735725 -1.027834887043307 -0.38088485554446394
H 3.3928480386393876 1.5445581266787207 0.9795449988796464
H 2.501809327146456 2.0837241440970264 -0.43306162283770305
H 5.213378738482665 1.3860668915701593 -0.636887027048058
H 4.081165826825425 1.0644928756134993 -1.9480616840987912
H 5.08647821674166 -0.8843835294832001 0.1467339453449108
H 4.779064510170088 -1.164424172710593 -1.5760038896674167
H 2.749681338233232 -1.9789156683145137 -0.2667133186711902