11

O 1.284367177044784 0.1505768796091858 0.44727075429932484
C 2.4322547607980933 0.06678361824413953 0.07671900649844679
C 3.2786564248740104 -1.1837755905075584 -0.136966450523734
C 4.60094452446508 -0.6493038146285522 -0.5817719339347517
C 4.524247290177539 0.6805100166685829 -0.6172660807193322
N 3.2595626987366764 1.118307822076926 -0.22690988050559524
H 2.7918296638816815 -1.8248879370202158 -0.8775760935962228
H 3.318779973162106 -1.7520060451900805 0.8004297764256911
H 5.4731644894777745 -1.2347118435807727 -0.8348052118347272
H 5.279142137002114 1.39608165672021 -0.8934126924095459
H 2.964257090730424 2.0761198144555055 -0.17699455754922905