13

O 1.2228055549560644 -0.1439656514293048 0.7108151777326287
C 2.343067317062901 -0.08077027850933971 0.2869049521206035
C 3.1629203411528577 1.1749998262670267 0.07392473699988941
C 4.344106315593649 0.6815396135161229 -0.7621327865227074
N 4.542089236702325 -0.7258527626210007 -0.40228619302387536
C 3.2076548395866027 -1.2582260019176552 -0.1533509759737202
H 3.491210651365698 1.5330562892796404 1.0592390497754274
H 2.5608439678570836 1.9678446594670485 -0.38406650792990876
H 5.269858001173361 1.2409091087615587 -0.5942363462950464
H 4.1085095538142875 0.7376166820696464 -1.8303352527539625
H 5.0746542556217555 -0.7852408392567457 0.46180188238676023
H 3.18392967882851 -2.0543702235822288 0.5768005901564977
H 2.7755841057262876 -1.6564327339250067 -1.0790401404035053