11

O 0.996848526205527 0.02111926656749756 -0.06612320029494177
C 2.3580973922527257 0.056693312845899166 -0.0610153548731029
C 3.1876498383100698 1.1526987061380454 -0.05112348951558729
N 4.475221664510478 0.6743860755267609 -0.05300423765455299
C 4.46181779560904 -0.6812423816453486 -0.05373279628098798
C 3.161311692477675 -1.101556777028654 -0.057763638863290834
H 0.6568113724476025 0.925834176393432 -0.07234990045856377
H 2.9747520962274643 2.2052641253787018 -0.05817501461509676
H 5.297648539081423 1.2454674928357012 -0.047149174780729726
H 5.381978384216043 -1.2522144665722403 -0.043412035655111564
H 2.810296986899853 -2.1261784991326294 -0.06024802273133641