15

O 2.380679558533561 -1.1427589077860845 0.6724481683040094
C 2.359979843918737 0.08579709666540465 -0.0401255152137176
C 2.8664458168438234 1.1668711399615115 0.87184183403713
C 2.80300507779131 2.619221819048407 0.37576862877026856
N 2.379485468266261 3.0248444894818585 1.7231913193695951
C 1.978768048305472 1.642209401075158 2.0337208375150024
H 2.0337796551387783 -1.8327817090512346 0.107043830369905
H 1.341859935579312 0.3319816501277244 -0.372541120201764
H 3.002006732081551 0.022569945763483527 -0.9306453877019035
H 3.8702001095198244 0.9145136202171175 1.2198088682427275
H 2.0381777464966984 2.743008614099999 -0.3983384403738089
H 3.729406539779759 3.0848534990517362 0.026960216565261545
H 1.6309690237007484 3.7164872025421594 1.7606862159738073
H 0.921510602395806 1.4139946945778268 1.8358152123409572
H 2.236744460092301 1.3016666471383012 3.0342457166115415