11

O 2.4179275025988565 0.8789499333868354 -0.8909950612680458
C 2.0711500110546077 0.11075527382898322 -0.03274181049919562
C 3.0220842602501676 -0.6292474429806477 0.8669564643596428
C 4.479917809935306 -0.31500848951195454 0.566127030066292
C 5.388034298447128 -1.0379902645557033 1.4380000812321514
N 6.0889341515988065 -1.62091605217318 2.1389876784388617
H 0.9984564431468438 -0.0858867878423114 0.1515577007900032
H 2.812026732653469 -1.704076968293778 0.7597513999127149
H 2.765808841607446 -0.3923977418891855 1.9043918342329658
H 4.658524113909865 0.7622442541098348 0.677228783853907
H 4.712503257639592 -0.5560394616090104 -0.4697694046925263