11

O 1.660979182887109 -1.4121813898529332 0.04277500702329948
C 2.3872851453779367 -0.20974419067509031 -0.0832269627808516
C 2.9059081133243336 0.16361534599470867 1.2602517352637457
C 4.161438392676791 0.550627070775415 1.4825606715924373
C 4.619136333631546 0.9562459444339053 2.767164754361986
N 5.027758883876619 1.2909113945376482 3.7911975423154463
H 1.1583220965302967 -1.5569158628290887 -0.7615237717705978
H 1.7357280258784515 0.6067880937636947 -0.4270310587073474
H 3.213921860975322 -0.3036729997625211 -0.7928691848890401
H 2.1916148314284962 0.11818651160504563 2.078992493477657
H 4.890510996346153 0.5733574606591438 0.6845643658644366