15

O 0.9413706441042459 -0.1398509970606401 0.43268398099862737
C 2.352246745743491 -0.22686625777091377 0.5616786465973621
C 2.9429546393705364 0.9766954750191488 -0.147035953176951
N 4.382856879292496 0.9461022308732762 -0.05181287014672398
C 5.055921118199829 2.209096291439275 -0.2673438200256128
C 4.957669807410667 1.6307449509213516 1.0948028860265187
H 0.552802040560697 -0.9125319946505044 0.8439438685993533
H 2.7409865793288484 -1.1455765192144345 0.1019895668219695
H 2.6536015484936475 -0.21286055271544224 1.6133343815949501
H 2.5150022454130774 1.8956029551015008 0.2779897514352473
H 2.6683538216900504 0.9360180942708901 -1.199155067561434
H 4.437672585048543 3.078397265648346 -0.4850388274405937
H 5.99339263768863 2.163294398290541 -0.8116826061249419
H 4.268010234839833 2.116707694718847 1.7884798645622655
H 5.815593178686532 1.1600171394233127 1.5511209965993094