13

O 2.747933353015469 -1.0833272309640307 0.3173599966553929
C 2.662731258950387 0.10861059833716118 0.10941775524221742
N 2.999410269580449 0.7010539545859923 -1.043373824474957
C 2.9754900099585977 2.0833799353056857 -1.5083658241150744
C 3.524858119508154 1.5847572334554412 -2.856823198282014
C 3.511476767889234 0.14691725691882634 -2.282571921560196
H 2.3016321443939907 0.8338543195330393 0.873879316410814
H 3.6475114955842236 2.7563145127403543 -0.9474654422861966
H 1.9817844703066967 2.5268447770330704 -1.5439733983933228
H 4.513567472350674 1.9632219516882041 -3.1150115042320325
H 2.8514506578464975 1.7430618531536586 -3.7031560585473855
H 4.48509666338764 -0.3341382017426728 -2.1691164324254886
H 2.828391847005836 -0.5526842905155458 -2.757146909756302