12

C 1.0270292395542238 0.02584095361107206 0.059820476499216145
C 2.528361176623438 0.06480883295226937 0.06073118004736904
C 3.278078728440255 1.2006690070508745 0.06069170328315842
S 4.959407022918325 0.8619620910004673 0.07136313552992399
C 4.676806639095616 -0.8188624888760672 0.07380562200202358
C 3.351034796458076 -1.1036217839077458 0.07009501955587892
H 0.6146271998993844 1.0359910999191697 0.06279836428663725
H 0.6430943128815407 -0.49546764297862855 0.9408236335334541
H 0.6455433634497224 -0.4971090671088745 -0.8208527358548793
H 2.9336896655335583 2.2181390859385086 0.06718072878850784
H 5.512286859664126 -1.5116939903084907 0.07278316707292612
H 2.9570160226552593 -2.1138202031228572 0.06343194864019022