11

C 1.005373968909652 0.07091280629035462 0.0606391954750074
C 2.5062165883089094 0.09401141900777345 0.05718058935185118
N 3.1374318989969665 1.2453075540565013 0.05940590261235773
S 4.751908287872961 0.9843145085626026 0.06195653642240948
C 4.65232509241785 -0.7031689697937239 0.060424765480275824
C 3.329529551704989 -1.0626709781437966 0.058423410930935955
H 0.6231273516397461 1.0858004911249677 0.059024021404021305
H 0.6303020024454423 -0.4557491245908129 0.9389898799586803
H 0.6289556552518347 -0.4488845534048637 -0.823949100262564
H 5.514876714538818 -1.3491662375820404 0.05785587538957536
H 2.9703361787532874 -2.081305900723131 0.05812214232274853