11

C 0.9256876942249257 -0.05172701414264827 -0.08117981745416848
C 2.4119077722528757 -0.007483439558446007 -0.07138454153761534
C 3.195188499279626 1.116206272848712 -0.07002439257613953
S 4.828686439641917 0.6657745002359742 -0.06486115011609457
N 4.548018589072023 -0.9482708266640308 -0.06650991757182724
C 3.2510782736786217 -1.152865420679567 -0.0733964787982107
H 0.5042064836134369 0.9548362429930716 -0.08192544856901092
H 0.5381789708137648 -0.5708657700510852 0.8027549872324244
H 0.5396813616712899 -0.5690121553353584 -0.954325170066247
H 2.879508261578132 2.1426759857381676 -0.0761359280483923
H 2.896645548506284 -2.1797852082582234 -0.06979851108493704