11

C 0.9700613039658958 0.04764974375138502 0.07491511908136722
C 2.4537289158553564 0.1317511601912167 0.07366969170909304
C 3.196146498555388 1.2811384195266227 0.07102752885060556
S 4.857688704984038 0.9029928208387283 0.07964700206342193
C 4.458330736686491 -0.7552687409529008 0.08350221956442612
N 3.1901020279435586 -1.0221392063215355 0.08035797306476435
H 0.513043137326466 1.0391456359507822 0.0707818766097887
H 0.6154300585812245 -0.49411485848660897 0.9516620426667833
H 0.6154371859773201 -0.5033172110364611 -0.8110646104151844
H 2.8412066994114786 2.2951306302760948 0.06833277100183727
H 5.234471258965251 -1.5141511460843986 0.0837131258624773