17

C -1.4723446570764824 0.4521372342149301 0.9632404588594516
C -1.2919161724672446 -0.1108421319380764 -0.4112522396531226
C -0.27807814938683284 -1.2763552528085478 -0.6219455806099619
C 0.8284495631651749 -0.8020085558129103 0.2897163928820186
C 2.1331473094463727 -0.03843781152676247 0.43200267189860064
C 0.9120032094391418 0.6560227680184586 -0.11584414994315495
C -0.5027924414300209 1.143634338320454 0.05770750983913754
H -1.1472472161808667 -0.09197607784009934 1.8429733046495271
H -2.400446832485337 0.9893290050056851 1.1275764304045772
H -2.12612469468202 -0.019494879454245297 -1.1020977555789149
H -0.7066877753864845 -2.2464567556381723 -0.3465669987247601
H 0.012184871752859157 -1.3217854900772854 -1.6831988481505613
H 0.45727633151648167 -0.8704474709032843 1.3051171195163418
H 2.9396609628298576 -0.09744025801277251 -0.27969599109641735
H 2.4589502581711455 0.03221298710341978 1.4597486045690113
H 1.0887906973395391 0.6965665045129779 -1.1926057065940219
H -0.7744468824443304 2.1168525494899786 -0.3233406169446579