19

C -1.3701876203154086 0.20532252715749444 0.562446010920911
C -1.2796321881245651 -1.078197547956674 -0.28414977833291755
C -0.9885097288882461 -0.24787051493741405 -1.548961132328819
C 0.4475094063953309 -0.31474812109372574 -2.0585978070868785
C 1.2459285774716218 0.5307718976417699 -1.0683831397256698
C 0.3120113988479142 1.6890176591536512 -0.7471011110061957
C -1.074530892502075 1.0545937981431266 -0.6928552769858074
H -0.6217319033148536 0.2942584138740912 1.34804010884799
H -2.350574687978665 0.3856121779204615 1.00872821954425
H -0.4756482066134128 -1.7693556194655908 0.002162223425758989
H -2.2137716770047993 -1.6491432118754659 -0.3234943301331923
H -1.7246853733409546 -0.3572535195400245 -2.3404245623486144
H 0.8124938683474979 -1.333918017531338 -2.1569830410787225
H 0.49889502420757526 0.14869801081467846 -3.0536009679060996
H 2.214559835309452 0.84893233253992 -1.4575810043447135
H 1.4569311403607164 -0.05338099202231231 -0.1584452178455924
H 0.5696357547758105 2.223401350999914 0.16663734849568648
H 0.35216344409760936 2.423823024668791 -1.570587726945356
H -1.8638225080842947 1.7567430576645695 -0.956852048845449