19

C -1.401040769476181 -0.40359911356457945 0.8482257882592538
C -0.8430893356895067 -1.7576831784566027 1.1365296658144102
C -0.7437247257601874 -0.6818924466031292 2.168642491595926
C 0.5618175343952553 -0.037970692249818194 2.5390066305902548
C 1.6585542461576857 0.20636634362835238 1.4787060002405936
C 2.707331561790261 -0.12037970111634205 2.562583115625892
C 1.5962664867080767 -0.8373710928254163 3.35066226134676
H -2.475172986782237 -0.27448457260137304 0.8063310377199118
H -0.855610087748588 0.22241779363690975 0.13936323457913088
H 0.06719892027037017 -2.060002581358948 0.607571299712153
H -1.5379237720812415 -2.5694016380640297 1.3085886220970357
H -1.4257138931060709 -0.7864223518535144 3.0080112769228093
H 0.3610870298006012 0.9122595875742361 3.0422879659269912
H 1.709005802246211 1.1792605728124315 1.0002347011536181
H 1.6582814127783219 -0.5678086120458565 0.7048848667364725
H 3.050171365436622 0.7816818626749297 3.0718804770444303
H 3.5809815387807573 -0.7065824663235102 2.272630005018858
H 1.586480954730089 -0.7375885443237694 4.445621778356612
H 1.5476168751044967 -1.9039171239292858 3.0971828751720127