19

C 0.9814141283210209 0.38409982826041306 -1.2666669337926388
C 2.302768285884928 0.5075148189960504 -0.5634680175652041
C 3.023464525559963 -0.723831779027414 -0.0860557549831837
C 3.5619110771610054 0.06970739100932398 -1.240525818016644
C 4.859228098231165 0.7987887915538253 -1.1441266753103978
C 4.9736703441752725 2.2200555222801834 -1.6069460546647056
C 5.088416944144586 1.8956892177980755 -0.14408441760592686
H 0.1566318384082708 0.3176678925596127 -0.5542627427134664
H 0.9559821507653035 -0.509998861152006 -1.8860238932409028
H 0.7928248086105713 1.2461142206037201 -1.9093417204030134
H 2.3915342567964455 1.3783363107533537 0.08644428673786293
H 3.567755249242794 -0.6560250767498844 0.8502745848235141
H 2.5689995786342372 -1.6836716335862614 -0.280882664172656
H 3.4017755014437308 -0.38967401336200974 -2.2181496011581046
H 5.721902452026998 0.1805183582683711 -1.331094659617734
H 4.064932733675944 2.70913451638714 -1.9387635653776338
H 5.8757992875976095 2.5252118863712223 -2.142419945204379
H 4.265029135221623 2.1976574642439686 0.49302057803601496
H 6.060024547319015 1.9589430215532853 0.3154925572523262