19

C 1.3113948741167376 0.3710631601054234 0.6796973816679669
C 2.514047352121612 -0.16874993664422 -0.06475152459642809
C 2.354868380308113 -1.620549492948386 -0.5490612076889598
C 3.312265804146628 -1.7670355069662322 -1.7409318264883904
C 3.3635060870010105 -0.38135401947767306 -2.358798983703783
C 2.0655877308524326 0.32881637556343635 -2.5607110862155262
C 2.8776134936753115 0.5921306335102666 -1.3301117068155819
H 1.0954643449534993 -0.24343377885843473 1.5612800206094584
H 0.42192076438242465 0.362245525980784 0.045215061064426125
H 1.4726479013359202 1.390859650478899 1.0241400498092872
H 3.390212827678251 -0.11920077166739279 0.5959848109986068
H 1.3175955346398263 -1.778221774549223 -0.8697043933301966
H 2.552198482785539 -2.3420260196821316 0.24685785173459707
H 2.979700529793094 -2.5426257989331766 -2.4367818663041585
H 4.314193453233077 -2.045946630579588 -1.395658155525855
H 4.186254594115712 -0.143387956641388 -3.0170071992430474
H 1.1346939595203236 -0.22953421247399633 -2.4724297730810725
H 2.0369378145229713 1.1074799065460492 -3.3172750298222367
H 3.3386056764032195 1.5749148207130736 -1.2239747815515096