21

C 0.9184511819588049 -0.20292087867404113 0.016789312132434828
C 2.4211086882382613 -0.1090069127971355 0.07405862208927765
C 3.0853522353957694 1.0107100211799451 0.8954488317221307
C 4.171696416143719 0.004862258964394481 1.3400949316873254
C 5.45169891414775 0.11036975428608163 0.5359135469069966
C 3.207003733908319 -1.1353447624741346 0.9255624845867592
C 3.7233489996835427 -2.4031811764585895 0.29066712498231023
H 0.4873696552263555 0.6446985747254556 -0.5255809796568552
H 0.4856061479494152 -0.20140497464336976 1.0205291161962173
H 0.5863155652456954 -1.1123361779041552 -0.4916015349243015
H 2.826481445942533 -0.11466405929158661 -0.9439397986098855
H 2.4422414930271046 1.310305963118583 1.7253738608123754
H 3.4185905637995693 1.9021470398712585 0.364070698203496
H 4.418314772517534 0.028189059013692588 2.4076960001961414
H 5.983704193527748 1.023911349263826 0.7845466636444125
H 6.125822141879074 -0.7342721452332502 0.7399906106822974
H 5.255255465324714 0.12880807743526088 -0.5419378981696746
H 2.5865475616905482 -1.392629205846276 1.7921379245532036
H 4.349419965266762 -2.183721280267596 -0.5783260466588327
H 2.9001811507212447 -3.0318250857902194 -0.05549711913035247
H 4.318641645356529 -2.9872967284907643 0.9867168080668823