21

C 1.042087173978135 -0.23629940952412157 0.30844973368947104
C 2.51271441808916 -0.05132817530063951 -0.056172346858854416
C 2.631609683299271 0.3322955372225022 -1.532992672854008
C 3.18016936352856 1.0253582743579612 0.8483388233030762
C 4.494642574902353 0.413300270197143 1.3243391822527972
C 4.138665380665846 -1.0596560651876679 1.4886847450844136
C 3.330049660466593 -1.348601871894708 0.23322682338702747
H 0.5021240020658142 0.7083841305373506 0.2070105213571659
H 0.9397463129004852 -0.5727916413952215 1.3405103078800984
H 0.5659780638573068 -0.9634626481532783 -0.34540375943549584
H 2.0361466860157993 1.2267050834011128 -1.7584756164778292
H 3.6647687921362615 0.5355871250631299 -1.8128519111817705
H 2.262613163127722 -0.4778081915478929 -2.1792880050596843
H 2.5337998489967326 1.2240239827869357 1.708258335228764
H 3.3111637339541975 1.9688563035670776 0.32316719846310676
H 4.867624810470616 0.8801020208929983 2.2477693250276913
H 5.266231357784395 0.5320966360906663 0.5653958867363654
H 3.5311406817257533 -1.1990820321784519 2.385435478015786
H 5.010548732285811 -1.7092951823677547 1.59148461023868
H 2.6766991897915666 -2.2178934849665346 0.33184979023664524
H 4.005897272988398 -1.5466309974225994 -0.5982696528321287