21

C 1.0669705533768725 0.08111954067734306 0.020358352589643594
C 2.575581666126371 0.07184065413986625 0.0221931884902482
C 3.323741461086987 1.1487212859211713 0.839046560366925
C 4.334427499187744 0.07565760012626015 1.3068804988878515
C 4.703692075735995 0.08768871089481842 2.7714737241359293
C 5.583532528625432 0.05372396597843428 0.4386507076829197
C 3.3107613964307037 -0.9992570719646522 0.8600750079108205
H 0.6751572755495892 0.9564577865654402 -0.5034894180860356
H 0.6726083594714016 0.08795043954203846 1.045055984777258
H 0.6686011330064113 -0.8142385945485573 -0.47527107332945856
H 2.9479985442008916 0.055292526516774736 -1.008513726363965
H 2.7097371610588974 1.5110679401968286 1.674164195013805
H 3.716269151693713 2.0081584592781137 0.29351408914974925
H 5.3050182330035875 0.9707709812555492 3.0201088099948565
H 3.810867901449484 0.10045812992396877 3.409326592541826
H 5.2953450436673535 -0.7948874404334078 3.0384354276253083
H 6.197546506429673 0.9399567327772139 0.6201065349161057
H 5.331026337642408 0.04426267329608915 -0.6280965055086665
H 6.191484901267 -0.8225155022352355 0.6465426913171209
H 2.6923057372771613 -1.3355775159387424 1.7017799195772885
H 3.6955568212011527 -1.8816089852198654 0.34256693919151826