21

C 0.8516891034455506 -0.020060372727183216 0.1080990602984192
C 2.371235366406317 0.016248200578885524 -0.02276903743204637
C 3.029575058127112 1.2143215545449413 0.6602129750580824
C 4.477071318408338 0.7550551299789823 0.835757525428095
C 4.333587739093483 -0.6963097550341477 1.3008725384803037
C 5.577007063394061 -1.540720901587357 1.0975004735030902
C 3.0867116761062694 -1.2115685554913722 0.560895563579439
H 0.3934981605105785 0.8826989307980304 -0.3112905737812376
H 0.5639271821038228 -0.07691305690489834 1.165252975685118
H 0.4276989096190311 -0.8791162174628565 -0.4095783204073819
H 2.6123625677635314 0.0823558161688085 -1.0901311458105345
H 2.5752480339486477 1.3791292200241723 1.6480285483785
H 2.9309555304916306 2.1410786292534705 0.10145313697496486
H 5.049945823159648 1.377709504671201 1.534735467018405
H 4.998684077730106 0.789019643494707 -0.12980383829412095
H 4.120541296268128 -0.6686167907783996 2.3796172289601207
H 6.443245931103302 -1.124527943983986 1.6301147722102616
H 5.842100592178874 -1.5851204371579017 0.03383039439745745
H 5.434237529600364 -2.561168051306497 1.4470011528329723
H 2.4319386611976213 -1.7596701247848296 1.2449938156092222
H 3.369001326825691 -1.9214965227511165 -0.227973670498062