21

C 1.8374947432808852 -0.8400490520121292 0.7434108616865036
C 1.7151542131824538 0.2416544265320329 -0.32825937097461666
C 2.464409403708764 -0.1096615005932027 -1.5817007317878304
C 1.8350720251139936 -0.9551702936905963 -2.6546124141300735
C 2.176336139366598 0.4849665052553755 -2.930295057883059
C 1.056273575743767 1.4806803684287415 -3.1044538639566137
C 3.3625926068806034 0.7482298149965995 -3.8282804273611792
H 1.2892500275864016 -0.5801737272291259 1.6446016970291444
H 2.884474964115549 -0.9977997792773156 1.0237436297720772
H 1.4462367364792612 -1.7913532597492376 0.37831774529497236
H 0.6552522833041337 0.39504121524667046 -0.5572099375232867
H 2.084617402843407 1.1865844757428632 0.07884918482865942
H 3.516171702178776 -0.3157139865643271 -1.4025161442150005
H 0.7823025708437058 -1.1973462666479309 -2.5377209558301024
H 2.423520637779877 -1.7270620485740613 -3.1342085288956936
H 0.19562589571644376 1.245305437825552 -2.492631258836908
H 0.7249139814647821 1.5042336345585696 -4.1497258479044214
H 1.3895027544812868 2.4934190667017107 -2.8459734750699086
H 4.153270352869671 0.004595036529005916 -3.6672757718355
H 3.796046908169273 1.738036226087556 -3.625574455795532
H 3.0781366046731002 0.7141575914294418 -4.877184075010235