21

C 1.251934410978991 0.016528948028101162 -0.4275098208481892
C 2.660058461628933 0.08575214348679253 0.11854352808404574
C 3.020376074256954 -0.9616178141375965 1.1676239839578293
C 2.165846913820735 -1.1468054839165478 2.4307385299125874
C 2.510615104235584 -2.655270576322716 2.3673629906056854
C 2.8511455733933846 -2.4659629507806766 0.8760816222720159
C 3.9979059438910776 -3.240697560099311 0.2835645011101211
H 1.0753467900888671 0.7979947627294567 -1.1673254657626166
H 0.4975869000128367 0.140456628848184 0.35683932123012296
H 1.0531412629397976 -0.9387408214795232 -0.9243088093170188
H 3.376765126335691 0.008168518870039058 -0.705661821708826
H 2.831059735977424 1.0796163714421987 0.5595954488169759
H 4.060239623294722 -0.7938913511466626 1.472907507563375
H 1.111510512998778 -0.9768180297492322 2.2381479433773923
H 2.4543131062204067 -0.5895184205924592 3.3320956711691965
H 1.7263255121910488 -3.3706892131529305 2.6330059025272954
H 3.4047276835250546 -2.8789703910273285 2.9559273965991166
H 1.9465968679264045 -2.6295042625082483 0.2882362950686233
H 4.917085175621033 -3.099528283372431 0.8622118782227641
H 4.212972810277522 -2.9232085128458203 -0.740712462163472
H 3.7886657256262195 -4.311573138707124 0.2468174469823742