21

C 1.1088288807859106 0.3338907427064255 -0.4052255408844375
C 2.5390632227801495 -0.03465152000227721 -0.04760072512895654
C 2.906451182922568 0.237315898539315 1.391051140120152
C 2.1335002090684814 -0.5744617619904753 2.4041598610603763
C 4.357082113010654 0.5290964893569415 1.6811237205185288
C 3.3475587544063123 1.6424801355396987 1.7241421344238992
C 3.0054858633853034 2.333532246102127 3.0136020839555187
H 0.9159032432015957 0.17502205705277465 -1.4662975688429718
H 0.9167878625690967 1.3895995327078516 -0.18937556759573063
H 0.38739162402779603 -0.25840113895105604 0.14808358361607477
H 3.236563207605695 0.5240223942306087 -0.6919247423610098
H 2.7087177436213015 -1.0995457627525198 -0.26537630581376337
H 1.074863403238945 -0.32397865637370243 2.4037771713259
H 2.5049436979649644 -0.41584490092202053 3.4163031612268933
H 2.2266744205043096 -1.637553428763758 2.187642556604601
H 5.05853571182259 0.4962540585088051 0.8599935658855251
H 4.761291815271077 0.19429161965230296 2.62391673441823
H 3.3620528900760167 2.308302677190393 0.860479631457988
H 3.043546312830891 1.6614603688380851 3.8625083059732757
H 2.00670181254685 2.779176131630175 2.982805196632809
H 3.7129832637402997 3.1439201848079468 3.2047377837604776