21

C 1.2869970072681762 -0.51175888883638 0.9891762195144493
C 2.4944680183638304 -0.09480117041518027 0.15614007577179737
C 3.2962634498790258 0.992247179956406 0.8711570666443956
C 3.415392341466875 -1.2435106514858227 -0.24456865227315927
C 3.87957571136612 -2.1955209431055223 0.8870915275252607
C 2.9458027307559407 -3.2885132547293714 0.33865432776697924
C 2.7378691996667976 -2.4598476125570268 -0.9321274882419515
H 0.6565404505092554 0.35221258418470036 1.1895704453270706
H 1.5972185784798951 -0.9156468573387715 1.9606227951157407
H 0.6836437683704336 -1.2562653878696564 0.4839743642937608
H 2.116435039185767 0.3406420725289045 -0.7847882249090857
H 3.7193359011439764 0.6048295927146036 1.8122231253369998
H 2.6613707480679434 1.847749705886246 1.121500740626871
H 4.126384642298913 1.350657060752143 0.25649070572568167
H 4.234864420366164 -0.8186106603243483 -0.8324058469634573
H 3.712575582307853 -1.8684433033724661 1.9071633921678144
H 4.935256538415169 -2.4645490617107524 0.7923072631234398
H 2.0308666166402305 -3.393647509181114 0.9336197156133276
H 3.3694632420243766 -4.292217331327457 0.21339168088310942
H 1.7102010526102227 -2.311506709877941 -1.269764462407548
H 3.319016956744433 -2.831716077020407 -1.782741183185364