23

C 0.8894859423800049 -0.8475360435719248 -0.015353119088966059
C 2.367087655816668 -0.5213665889503311 -0.13501372922991858
C 2.7612134147662273 0.002548581187708984 -1.5024840371221053
C 4.23647866909184 0.32996086737035746 -1.6309948654205615
C 4.6259111862104385 0.8565976501486579 -3.0008917150962597
C 6.113338298265752 1.1867435949728846 -3.13327045724271
C 6.483534223375564 1.7143308914358766 -4.505537708975844
H 0.6373804231466913 -1.2235715665552873 0.9762355573042423
H 0.5982764818622988 -1.61079964141698 -0.749465981113851
H 0.27079717058164965 0.040586297117606696 -0.20578583181465065
H 2.9540616353741758 -1.4245191280533651 0.08683652807521818
H 2.6386676135215423 0.21070019135130516 0.6288406893573356
H 2.1723735558347044 0.9059136940615038 -1.731597655980828
H 2.4842301148361003 -0.7358588840494407 -2.2697816224606466
H 4.832948242454696 -0.5639336737202992 -1.4034720835648185
H 4.5139580682932205 1.0674476818239271 -0.86453547541014
H 4.03996649807174 1.7615047044746766 -3.2305281062323177
H 4.350107658982981 0.1216185871411221 -3.768969980642203
H 6.697234006272993 0.29636238260103276 -2.905293742904314
H 6.377484997700277 1.925526476747464 -2.369889755231122
H 6.2564133453619615 0.9845382452436917 -5.287133332017292
H 7.555724047382668 1.9488694467091894 -4.56918618200745
H 5.930963657272704 2.631354734392261 -4.739136809586457