23

C 3.9723519493365345 -0.09413951651643153 0.8285970015233579
C 2.7651958978222497 -1.0299692997837728 0.830809072487459
C 1.5100223093304783 -0.22957932662543265 1.16142624905849
C 2.6389932532009612 -1.8954666968893368 -0.4564235205532795
C 1.4624685297436828 -2.8634126789936847 -0.3120583224966271
C 3.9146887897957394 -2.728990019392411 -0.6383810394815086
C 2.422453495728783 -1.0369929076667763 -1.6999032695190701
H 4.914083019816626 -0.6238774945563894 0.6876841546164573
H 4.037391139704005 0.431249910585005 1.7907484427832185
H 3.890656460184604 0.6714449796387644 0.05603893273977644
H 2.91074050428089 -1.7546127461974523 1.6472229012191246
H 1.6453514866909804 0.29920760796959334 2.109073942668464
H 1.3087204532255443 0.532783872009119 0.39904503723323154
H 0.6256011782667521 -0.8521203669261388 1.2530686271400848
H 0.5058274180480832 -2.3415599305496295 -0.2883396969613509
H 1.5496204301981338 -3.4522163197746916 0.5996171388633139
H 1.4412284704217009 -3.5552806895934284 -1.1541600417822466
H 4.783378263997595 -2.1110839705244713 -0.8659105758537997
H 4.129424468015965 -3.314942364425087 0.25101804091213353
H 3.790548542613925 -3.4280314214985563 -1.4689468654776858
H 1.5125115247868934 -0.4523697373014994 -1.638747992426697
H 2.3429810470456673 -1.6736032071981715 -2.5872808478266522
H 3.259199653970212 -0.34906065794497565 -1.8719994055819948