23

C 1.587863523299786 2.337776752754611 0.00630318862826359
C 2.975255960355443 1.9373048529544739 -0.4675373516661566
C 2.942773683902269 0.97271408325851 -1.6435826588879443
C 4.294331516248623 0.5896463124296525 -2.232757195285317
C 4.1015182841536655 -0.14862477319077375 -3.5552979409130656
C 5.131031965995917 -0.22311733365156258 -1.2402152176466705
C 6.550714074911024 -0.5148649017580389 -1.7009476072615872
H 1.6318454667398963 3.0198740588896844 0.8557679447670421
H 1.0138659116942694 1.4579547949146907 0.3228522121665695
H 1.026867481491519 2.822952835061376 -0.7873657165919573
H 3.5269478506849907 1.4899044668496773 0.3700773706842844
H 3.541829821776369 2.8262425968311713 -0.7452758078209892
H 2.3401249024980584 1.43280168958717 -2.4417314521724576
H 2.4049162313006303 0.05652477211139694 -1.3514183854997903
H 4.851207831196824 1.5176864049884882 -2.4371553381356144
H 3.5749153739449793 -1.0912188048511122 -3.3879850061910846
H 3.511168727275234 0.4533032169425681 -4.246961325338268
H 5.059056830995027 -0.3748252757003118 -4.032747966165587
H 4.613293055725736 -1.1683338241327377 -1.0405084012298027
H 5.1820941412014045 0.3009386746665485 -0.2880493138436396
H 6.5760782076860025 -1.1426260216201098 -2.5956771054597434
H 7.117371558096116 -1.0325644998841974 -0.9240616157262344
H 7.0861716182266905 0.40519450582870675 -1.9311382110715616