23

C 1.3771555189527556 -0.7641509549560487 1.6710677629112078
C 2.7427807922159664 -1.2709038059198787 1.240744130466036
C 3.707541149408772 -0.12547025710056356 0.945935954392941
C 5.126003197967696 -0.508934980839857 0.4991801018444511
C 5.0961622569196035 -1.3010514526168924 -0.8049153687629842
C 5.8331412497150295 -1.3289598447980369 1.5712378306284014
C 5.906475492381654 0.7857107146207374 0.2675096043461343
H 0.6877416509682326 -1.580018055865611 1.8761026784629344
H 0.920525360909931 -0.13432956308637453 0.900967593169388
H 1.4490068856399303 -0.1502640074027724 2.5804314959613612
H 2.623764544788981 -1.8924307809058318 0.3505690794966062
H 3.1412556671577176 -1.9105739308901362 2.0245603670985717
H 3.7886804304594426 0.49236373535789874 1.8483876509143986
H 3.264471501350642 0.5173474145554191 0.17556724580054184
H 4.5885034057709655 -2.2606183818179795 -0.6848277967455051
H 6.105972141048278 -1.5072743465432108 -1.1620728363665502
H 4.569218820657866 -0.7404598638902049 -1.5899669494579884
H 5.8550043003816015 -0.7881184071580795 2.5256015169036714
H 5.344833961784224 -2.287253148582411 1.7420630734007463
H 6.871908163684111 -1.528403873470235 1.2839763271022822
H 5.43579237423853 1.3968624773637444 -0.5064427085124991
H 6.934184124510767 0.5679826587874361 -0.049264223539449314
H 5.960838661822614 1.380876245118495 1.1877782922534106