15

C -1.4157973789189726 0.832128573824751 0.5969473804028176
C -1.1593216514700955 -0.3958450665754482 -0.22001607837504478
C -0.23865387563482182 -1.4263524318416403 0.2598226830498042
C 1.0400572341708174 -1.144859456851488 0.5500300664266334
C 1.6378228162220105 0.12694383254757932 0.2040327835495017
C 0.922407040640602 1.0708604612033532 -0.4230043577851353
C -0.526451778812921 0.9666155701510256 -0.5965569817363724
H -0.9468767910194466 0.8816187185072493 1.5700130615422372
H -2.4062147406403613 1.273027998222005 0.5225771065580438
H -1.9887046686298087 -0.744585142514623 -0.8328214718462951
H -0.6181264761907642 -2.4340663759561734 0.35786546114632656
H 1.6849584816968266 -1.9291692971907348 0.9466775058903827
H 2.700073626527852 0.25921721440238155 0.3406915946018424
H 1.4188505628962147 1.9370074101164512 -0.8524787168255968
H -0.9491560601064242 1.5009403176619769 -1.4512990973702948