17

C 0.8342291330390939 -1.2049540231117273 0.8622606432573205
C 1.1274627678064717 -0.39946528932695335 -0.3512088811583469
C 0.9679651223942503 1.0922395077305613 -0.4010472791289196
C -0.24644049203990617 1.6093472849952977 0.3810573167604062
C -1.4713572759712237 0.7896651866246435 0.1276266903613519
C -1.408017614967347 -0.5073391617283227 -0.19567247696729495
C -0.12017689807375995 -1.2378492233248024 -0.3054916139217328
H 0.48857253975257736 -0.697100168056056 1.7629771308420186
H 1.4349107494901217 -2.093137699759309 1.0480724190466097
H 1.920009406323518 -0.782482172650571 -0.9894610860705444
H 0.8573385829285722 1.3895783033346265 -1.4484430941270974
H 1.8785890192965002 1.5815927158028655 -0.032103290770107776
H -0.4316819812099335 2.6504332485290076 0.12231181514088099
H -0.01969275766118465 1.613359978549562 1.4560317762689523
H -2.440395576839981 1.2670073634592998 0.22149517148856576
H -2.314476936942783 -1.0711556538360774 -0.369619112542851
H -0.1497648290303708 -2.1492330646906472 -0.8859998283133628