17

C 1.5763695253736294 -0.21138551965889513 0.515765624096019
C 0.8600593239219888 -1.5598354318466965 0.2931841622133098
C -0.23339053274301727 -0.8094272075780695 -0.5094226955971273
C -1.402453662854105 -0.3288554509232144 0.29410897163055605
C -1.3688978397074152 0.9830927104437684 0.5294084308731694
C -0.16242791162281847 1.646642942523612 -0.08146845554347074
C 0.671990586326857 0.45229735277174976 -0.545909544874902
H 2.654095281728536 -0.1975327890383999 0.32917253215898307
H 1.3920654305734912 0.19539224398064864 1.5196989770445102
H 0.5349206498459321 -2.1076538344007485 1.1793351156269842
H 1.4311125273806196 -2.236676543870475 -0.3490989477327642
H -0.5434140145705485 -1.271173546112584 -1.450534990965445
H -2.192267798759203 -0.9919203909897922 0.632704555486076
H -2.1252965178877705 1.5342610013483435 1.0764942159788098
H 0.3824331055427987 2.2710531419090554 0.6367790089513707
H -0.4499124822729482 2.302206602746858 -0.9128387539173458
H 1.1912083619879144 0.6226349302014833 -1.4959050454863865