17

C 2.0945511296254855 -0.19478716601143603 -0.053186963743256835
C 0.7500550964683981 -0.8020504149163601 0.18447032177751985
C -0.39522389453048923 -1.4265524125032643 -0.5615270144892064
C -1.5637850945313596 -0.4933409201933701 -0.2412202850456329
C -1.4414662921928614 0.736246326620829 0.2919476578091657
C -0.11619738034485169 1.4480601464132097 0.5475107816558946
C 0.859708323109937 0.627641648631682 -0.23876447754667388
H 2.6546361168892143 -0.3886835683416325 -0.9686643473219558
H 2.7259375520725864 -0.1163812069078652 0.8242775845801709
H 0.5657883185252252 -0.8689649896285002 1.2541732752525703
H -0.6389655939459887 -2.4410370385135005 -0.23010381411283531
H -0.2270985122144024 -1.4778126613486362 -1.6385812478333388
H -2.5566487381664476 -0.8709168572163924 -0.4186431877072893
H -2.3474477915725163 1.2909482573670201 0.5112488697498017
H 0.1095621608409513 1.4629883072522822 1.6213250668558317
H -0.19103674553062966 2.494906826326151 0.2299923347914638
H 0.6473454272547039 0.733997590918982 -1.2985446599427688