19

C 1.7204968782916807 -0.1431977568757646 -0.01478278746961819
C 0.8123382314868022 -1.249093392861588 0.5142331670859364
C -0.4219428690026 -1.526263432173347 -0.33508441717840004
C -1.5298118346254472 -0.5250058111600813 -0.151021503743636
C -1.4211096378580395 0.7562794967609886 0.19291031223127889
C -0.16147850633675626 1.5586224013254641 0.35190251480376566
C 0.9976855610650023 1.0982643600046669 -0.5246993217196173
H 2.345920630238411 -0.5453090396788192 -0.8294947697711794
H 2.4218035559153064 0.1401194259346287 0.7849868450815674
H 0.4816649136809563 -1.0034078534240873 1.5195554887045806
H 1.3941301105297212 -2.1702903855484723 0.6082251015760551
H -0.8213481593150588 -2.5129077453127153 -0.07990769087800786
H -0.15178730606526158 -1.5951117210627384 -1.39660163639143
H -2.543960559581368 -0.915609164441886 -0.2763592911955951
H -2.3497678407478393 1.3128609011687145 0.34050516553716625
H 0.13615649998704601 1.5821786345324007 1.407695820590384
H -0.4022141183134189 2.5995724501817743 0.10426303968772316
H 1.7144077369104418 1.9073706959002312 -0.6371006352306372
H 0.601637365121128 0.9077170442639781 -1.527993624823891