17

C 1.322855473070255 0.28659395042079855 0.6990666549546974
C 2.5984664339450374 -0.12489484568008676 0.038435212242185886
C 3.3568777361358544 0.8653610860335145 -0.7854067614769837
C 3.9584295223584065 0.36450633242132746 0.513390006838735
C 4.879751279046034 -0.7809380232512727 0.3642752621082006
C 4.253331632303066 -1.843012143568214 -0.13427236348225205
C 2.7768150143355905 -1.5939705427974757 -0.3303241892092187
H 1.3475223034642483 1.3430837204134 1.0005026745228724
H 1.1316467825872332 -0.3012203481655453 1.6003920020856441
H 0.46468991526291076 0.1623314313186621 0.0293528547264369
H 2.9756993165832935 1.873378427944627 -0.8006048054710779
H 3.8325183261646365 0.5434874633069674 -1.7100904835502129
H 4.054730137261618 1.0626675030491117 1.3342134903654406
H 5.930833057136577 -0.732892610315124 0.598093477971286
H 4.725064161612464 -2.790041423169941 -0.38915162376597473
H 2.1754974038967276 -2.234514200446151 0.3143265180868598
H 2.457176931155137 -1.7959007955392536 -1.3575074953385946