19

C 0.9213881491312393 0.15430781784925302 -0.27106426759923397
C 2.4059955497752044 -0.017593519192030734 -0.1509939651855825
C 3.167324120254483 -0.7615059573655498 -1.1921526709614048
C 3.3267772408178224 0.729726540014915 -1.057883229904444
C 4.617959152244723 1.315556984130659 -0.6249003946065672
C 5.554043724602585 1.6409099096362347 -1.747379186572531
C 4.9504100860339655 1.519221560040539 0.6463387444401016
H 0.38170399910666114 -0.7256513585700443 0.11913098174394975
H 0.6211186488414989 0.2826644952086907 -1.3223663900244054
H 0.5695897594871033 1.0250658662272638 0.2811629213961724
H 2.7593490924975637 -0.15903983327437968 0.8697647968035712
H 2.629673105146969 -1.1428871375913272 -2.049377176017934
H 4.008613244123727 -1.370942484287743 -0.8676449182842761
H 2.8313257792401805 1.2975928658195481 -1.844893434719858
H 5.767584153664795 0.7495102062421034 -2.355645797938495
H 6.500129327257157 2.0361016928374607 -1.3865999812182477
H 5.111097184848828 2.3721056984232582 -2.429586654271552
H 4.26372637587134 1.3070195703574 1.4592885180890456
H 5.912736797539787 1.9257950749904216 0.9102361831085005