17

C 1.0220772715679078 0.017426933975281625 0.11187153890810057
C 2.3527842869317435 0.023043576163488913 0.09971330832404293
C 3.3108758760521497 -1.1573420213359622 0.13639894755628743
C 4.621754296784117 -0.357100086946588 0.08247658228861975
C 4.323533356338792 0.6810225990011153 -1.009755210682706
C 3.2857756514106 1.186335583304856 0.03829255385901666
C 4.348497985754652 0.7743357450820773 1.0947969265052375
H 0.4589223711669754 -0.9062813088962449 0.15767182453726974
H 0.4627433318438004 0.9451996482143763 0.07886630119264329
H 3.194030423760105 -1.8266446079960652 -0.7146466535484903
H 3.206820548315572 -1.7426643089410403 1.0516579618278896
H 5.549564388374829 -0.9290902122416679 0.10433886313936326
H 3.9375015944356044 0.3341747953605895 -1.974200857441893
H 5.133217340889396 1.3881105457636622 -1.1526161698541961
H 2.8584082225061476 2.186102479562035 -0.001559690670576249
H 3.9974316654987305 0.5133860562965387 2.093443856414696
H 5.167672591010717 1.4901015229456416 1.1500785484127152