17

C 1.1925457948635043 -0.03139666255754589 0.18795581996110217
C 2.643840580871539 -0.3116029021245098 0.13379762492726543
C 3.3304357738170074 -1.3491664460700328 -0.3588731629797419
C 4.792254728427946 -0.9707150831802482 -0.0884688812035505
C 4.778939379852831 0.5213981124507335 -0.5177604782702037
C 3.7550265215177854 0.6084332127870501 0.6592701543328606
C 4.666534282313711 -0.43256047454006075 1.3642517620512222
H 0.6151785338162967 -0.8351829947040487 -0.24610132389547468
H 0.9504498287727764 0.9041994737376715 -0.34341880715300577
H 0.8675892161123542 0.11308006095712926 1.2271347373349084
H 2.974037044700175 -2.2524652987509364 -0.831868943335181
H 5.575445280433376 -1.6572915436639175 -0.3869619723078028
H 4.4115783670633055 0.7499936066512422 -1.5136275105127244
H 5.713133959102791 1.0466925710284456 -0.30721122638690157
H 3.473206336354397 1.552500331227437 1.1158190166413777
H 4.204404549003076 -1.0842773177395935 2.109915766389017
H 5.6010505338438 0.0014613219687222602 1.7496488110889399