19

C 1.139343778759113 -0.1692631903221103 0.22953097708481718
C 2.6124591548064893 -0.08305624383639934 -0.04760086043941515
C 3.2535068106844105 -0.7163764981163441 -1.2565877618920187
C 2.4745146602501933 -1.4815138276431346 -2.285591336262469
C 3.157720900148934 0.774715451451681 -1.1748812891612874
C 4.312128310585718 1.6595774904057363 -0.9535040650796812
C 5.59324543754535 1.3182111193548525 -0.985973350635443
H 0.8849359696954826 -1.1099176704068527 0.7308510807081713
H 0.5473865329671637 -0.10914158660589754 -0.682343218914665
H 0.8264536311549293 0.6463506060789808 0.8821576788326223
H 3.2399716437133863 -0.09470903012967298 0.8352647677616718
H 4.248336665069502 -1.1185517108172434 -1.0675133618377073
H 1.50303014133436 -1.026552837053955 -2.490159396897386
H 2.2963030896698133 -2.5133607175761212 -1.9605345206816833
H 3.016126607937042 -1.5150684056972026 -3.236640492743685
H 2.367818682715405 1.223313146658585 -1.7904199886818457
H 4.065840733382649 2.6954440371760255 -0.7267445546098578
H 5.910224180567367 0.3019835621786486 -1.2200563149342365
H 6.37979819820094 2.03613888913844 -0.7787281978693029