19

C 0.8097048432437846 -0.2234878799886332 0.19930730332352578
C 2.3107651308847164 -0.11944672627508872 0.10189093964100855
C 3.020891891058945 1.1101658328155786 0.6907902910644842
C 4.15358968290448 0.19112208217409385 1.2146526252326977
C 3.1832028764419382 -0.9982575549392719 1.0233632506736146
C 5.349988418585198 0.1471056951354018 0.333583014142062
C 6.5973211538045895 0.31020910964490456 0.7386629870329317
H 0.3120593510465209 0.5403570739405995 -0.40455996187708576
H 0.4801687095834099 -0.08502693413850099 1.2395250898358534
H 0.4518967680401884 -1.2020839925707931 -0.13753427886075104
H 2.6194115379908935 -0.25798575327478757 -0.9453671247876643
H 2.439028131189767 1.5361322275683347 1.5222165581451748
H 3.3006925054477216 1.917434259677853 0.0102096748473226
H 4.4684370645134885 0.3772599103783488 2.249961162406475
H 2.662970957059026 -1.241998921082255 1.9520420198520778
H 3.5988176074279945 -1.9235410997217453 0.6062106473397033
H 5.153747558109648 -0.03280582942169652 -0.7207683127465285
H 6.844079190474057 0.4874715568511729 1.7767083098114969
H 7.432927388062777 0.26382404940721793 0.03458362964645547