19

C 1.037683597105475 -0.14611765758223835 0.1574710026374715
C 2.527379214649651 0.08127980089878155 0.19575598520158183
C 3.120403362320515 1.2326935363191058 1.0251406156561802
C 4.29392028354301 0.3069373324676616 1.3837041280289928
C 3.4088830945308577 -0.9003371986335158 1.013970924485943
C 4.0214810349789865 -2.071009984119414 0.3283602667984118
C 3.8809746658324924 -3.335243300181942 0.6957395557911247
H 0.5262385390067018 0.6666192196869761 -0.3757844559651065
H 0.6262832729698556 -0.18835636812149917 1.1716878956793284
H 0.7844813280770018 -1.0833836073506846 -0.3457376629301573
H 2.9293761397528737 0.13144889263894144 -0.8251701442814676
H 2.4929277602701485 1.4319651719754962 1.9028056539902825
H 3.3328584917803736 2.176811506805676 0.521285517123755
H 4.704687858347203 0.3446122467096516 2.3988015311009026
H 5.117062995055158 0.4194499357576651 0.6762064738578584
H 2.8553266154729293 -1.239456772355505 1.8935054328596308
H 4.61304373131191 -1.8397881074284417 -0.5492308908293362
H 3.294890515380293 -3.616042016839171 1.567023996739964
H 4.3451505043940415 -4.138691851240879 0.14030077976233254