17

C 1.0039444216461844 -0.021859042676473824 -0.11067088672341713
C 2.5075809505200577 0.03319367787543686 -0.03546055367149324
C 3.2027633681477563 1.0941332619437316 0.847692266874972
C 4.262410130458022 0.03848908435709966 1.2238399052890967
C 3.254915009450112 -1.0570971203528403 0.7989152699603719
C 3.730744215895544 -2.244693723611859 0.12878887389727217
C 4.131635598102169 -3.2253601673090047 -0.43682680550852865
H 0.6093863536216716 0.8553353996097716 -0.6272033522012758
H 0.5613285961070061 -0.042899888721982464 0.8902570649510381
H 0.670409490533181 -0.9062008962655074 -0.6451480439030909
H 2.9430628590758725 0.051456722940561674 -1.0386497878216376
H 2.5833041221328865 1.3601847987702882 1.701035040095217
H 3.542236186320055 2.0102804968609402 0.36621136694765455
H 4.6314472670993085 0.013977209873641044 2.2453277610357447
H 5.116438795146063 0.059305292277045805 0.5429253319387876
H 2.6370759493877247 -1.3324026468298242 1.6564529529488863
H 4.489999557424962 -4.091213829598161 -0.9443803142859837