17

C 1.3884732801257036 0.03993820422329796 0.7193349063057213
C 2.4464583435841933 -0.12713384775235984 -0.060942997375907554
C 2.8831278872984614 -1.4186184718997048 -0.7127521256047468
C 4.413663818479367 -1.3193442827536492 -0.7877420347290339
C 4.704766253727905 0.17247510715459427 -0.8397038890404782
C 3.9175212837512827 0.9793067446819341 -1.8163058236509884
C 3.462645653981702 0.8991648782990629 -0.3765557085092596
H 0.718314836472006 -0.7890015356522535 0.9480539326091248
H 1.1480769502499133 1.0013301419763678 1.1446937026154758
H 2.4532277582910487 -1.4907780957963717 -1.716624567956696
H 2.5396337350007534 -2.288490583479933 -0.16281098131855948
H 4.829843397122328 -1.8660633701986542 -1.6314895265788842
H 4.857298313924514 -1.7293493489084029 0.1297686737110337
H 5.6826546944228316 0.5243909151412868 -0.5486430119519797
H 3.334934387689404 0.4857063014076577 -2.582538610886493
H 4.342161625769979 1.924838365877579 -2.1288299676555322
H 3.5160094092393677 1.7999716236001992 0.2290832291339035