15

C 1.0201459734725313 -0.11148495260179492 0.01809593748743044
C 2.3431383072398098 0.06614883211811376 0.08962608302763352
C 3.0834953450076465 1.2824464181104298 -0.21346330079981995
C 4.382921145229391 1.1440215746729256 0.06911730834705578
C 4.680664807341861 -0.23619604209000514 0.5526782324229939
C 4.422562180748175 -1.3161461648982076 -0.46708046370494055
C 3.3486888338542835 -0.947277082747791 0.52868229859713
H 0.3772334283089083 0.6894213849353752 -0.30997206537970434
H 0.5551033510275609 -1.0459040927654335 0.29197133900723315
H 2.6295390842608004 2.1736506537058173 -0.6372936670105586
H 5.1456354719004915 1.8966332676170776 -0.06296833052556809
H 5.419235882756695 -0.3975367215258663 1.3297888309916976
H 4.911061505888269 -2.2676521105407303 -0.3066650531870525
H 4.298722997358418 -1.0193958682922544 -1.4989443165694838
H 3.082448699004302 -1.6719124615668193 1.279373514866566