17

C 1.1402928538547081 -0.07922098642039609 -0.08778183985434226
C 2.5878592047672693 0.20616382008393289 0.017536733447436344
C 3.2195134464380617 1.3442235012449368 -0.29494012537431835
C 4.695231970790587 1.2737205128302709 -0.04042128325088231
C 4.926823528723048 -0.16378686534803338 0.3793303667157253
C 4.561750944423521 -1.2471677664000869 -0.5963570571286089
C 3.570664574677041 -0.8233330005564258 0.4595576530862352
H 0.5747405252541419 0.785927602276405 -0.43402669147720335
H 0.7316803624698421 -0.3751595658611609 0.8934840872293841
H 0.9457528181224372 -0.9073805538332642 -0.7730938129113137
H 2.732213273785844 2.2193149197383435 -0.7005967428603355
H 4.9949155688803355 1.971029535656989 0.7578810314943287
H 5.286940714844087 1.551585164745891 -0.9249857626894139
H 5.691097805140335 -0.3934023416598452 1.1099742579835752
H 5.051859917643311 -2.196494154776785 -0.46195455591407103
H 4.341553132160898 -0.9722702507561537 -1.6206418602332584
H 3.3076784043442538 -1.5281140183896695 1.247629737897195