17

C 0.8682977049884884 0.11739705372107086 -0.07548753914911449
C 2.381059723371454 -0.041836257553348244 0.10020463616913933
C 3.036797185026871 1.238001094168129 0.5410828465551388
C 3.5792749368075976 1.1365586347728822 1.7589521281912743
C 3.453902863423691 -0.23575558124600227 2.2923577148330145
C 4.181191602928117 -1.2862141965610292 1.4875352755975293
C 2.738850750174248 -1.0111439790363737 1.2091826351828028
H 0.6396308747593343 0.8694138651722743 -0.8325893550954158
H 0.4134293064992686 0.4237254923370732 0.8611838131959116
H 0.4160316510922139 -0.8243748283673529 -0.39185507023344507
H 2.8057469584128367 -0.36930339276065466 -0.8599661329391176
H 3.06802338574224 2.12451792678235 -0.08175151750463933
H 4.076982029602149 1.9369211048383388 2.2858266430565273
H 3.2792326468138686 -0.4130551806227372 3.3487527149212557
H 4.418139547445786 -2.22474982902368 1.9824266780385182
H 4.931563897537104 -0.9308496333642968 0.7790647741742257
H 2.026428569660408 -1.7841594270918648 1.4690778175247774