15

C 1.0428426978136387 0.08963772112730503 0.023993029801910076
C 2.5273445231525073 0.07774689159534601 0.022830914510883656
C 3.369376923967767 1.122312895042649 0.021974719466916984
C 4.759850320210583 0.6439070372618626 0.022400603288148115
C 4.7535074231589975 -0.7014167754105712 0.02035970686851216
C 3.358067135807104 -1.1416445935222497 0.02284289427511318
C 2.9179150090617814 -2.403463497547885 0.013571872863960392
H 0.6664501385918679 1.1181303697628187 0.025736110583528527
H 0.6293152576410564 -0.41559241608700787 0.8993745738174451
H 0.6271692490557442 -0.40920153114438595 -0.8637333692227306
H 3.0835239886788446 2.1663668163283827 0.032338747337453705
H 5.6302685079574815 1.2870828621452661 0.027738130846659517
H 5.605574318857289 -1.3620797857341245 0.025373582144666472
H 3.6055935282680283 -3.2360947090338574 0.01204974948884286
H 1.859452777243184 -2.6435452758967943 0.012499712262929532