17

C 0.9131076188550724 0.04677573463280302 0.028409979409022523
C 2.439751004583305 0.03780280750408418 -0.054853305521230036
C 3.009928553445556 1.1950948373690269 -0.8145187524472934
C 3.789536917636354 0.7347263403652953 -1.8082841957068452
C 3.7982791951093478 -0.7273301994018684 -1.7707381296227531
C 3.016292631960947 -1.1600683870576904 -0.7651638758499077
C 2.7335487420997335 -2.5653168790774785 -0.3691008114716549
H 0.5567017796343173 0.9359592904002768 0.5361187211302524
H 0.5443596389481474 -0.8227382472303321 0.5779667198276537
H 0.47624322971553223 0.02707714404512603 -0.9776294798875637
H 2.8339836750120266 0.05910460635562434 0.9694003322321078
H 2.795737695581743 2.227430839782266 -0.5792314578983092
H 4.343930313712581 1.3399883201822174 -2.5190530348820426
H 4.347475640044803 -1.3554265405912358 -2.4620029086846347
H 3.253014553261547 -3.2704245488781045 -1.0101824520139508
H 1.6634954622697407 -2.789913336941435 -0.42152708994623567
H 3.0405853676453045 -2.753058703577033 0.6594816102859549