19

C 1.0718314685719879 -0.04385665415573072 -0.011851101333707455
C 2.5842463622705387 -0.09826416632402112 -0.11598603065944371
C 3.04295136972666 -1.3327541889939347 -0.9200675985789247
C 3.390487034138819 -0.7653324077784049 -2.267024625813631
C 3.4359443397239473 0.5631384459040255 -2.2498476673491283
C 3.141936338346191 1.1257827747555107 -0.8781132153225354
C 4.388579632137225 1.73295816765678 -0.23999725984502024
H 0.6703918906030413 -0.9142162671677894 0.5031993463544245
H 0.623187394541158 -0.01633245560616982 -1.0083854677231643
H 0.7395405705368292 0.8470165170427681 0.5239112606919102
H 3.0015032121399714 -0.12120290259562246 0.8929413903065601
H 2.251544265039828 -2.0926643872608537 -0.980888701279607
H 3.9100250069249904 -1.8310859419951744 -0.4712052932447792
H 3.610857024956895 -1.3768262976942223 -3.1315271899094794
H 3.691923395892061 1.1909131427866153 -3.0926748358751874
H 2.385609657634067 1.913926348394957 -0.9424845582527174
H 5.17526181651505 0.9747588411849109 -0.13782870031498873
H 4.1676050178765305 2.1354088916802505 0.743936790852445
H 4.793151786810154 2.5421280988014607 -0.8480774547727918