17

C 1.0060150740426255 0.06731417266520724 0.26871954846955876
C 2.512528423974048 -0.007935140913775951 0.02428686547893362
C 2.9035026590381277 -1.2415237848170317 -0.8251784826742149
C 3.4329242817149135 -0.673893724894718 -2.095717067184996
C 3.4890714805020906 0.6603472867652971 -2.0588800681305344
C 3.014484342988983 1.1731869238820805 -0.787306599322651
C 3.021719069142179 2.4559243084929623 -0.38930239309794273
H 0.6639522711242531 -0.7912054374687352 0.8388512648606891
H 0.4709286978009458 0.09051435739541654 -0.6911971596065611
H 0.7533519973402403 0.9708130576575017 0.8194515019577651
H 3.0184770671780856 -0.04053866007873011 0.993542528394219
H 2.046361361405568 -1.9068377145227764 -0.9979652812459738
H 3.6651557479102013 -1.860157402753136 -0.32201895974262634
H 3.7292570386452515 -1.2787802693317103 -2.9435437399598507
H 3.850701391317452 1.305268150508147 -2.859076271876609
H 3.3863796804816726 3.242632499481418 -1.0426004009885634
H 2.659314495371356 2.7482192832277206 0.582347717849641