19

C 0.97312484452727 -0.007431887236553564 0.13460650264003773
C 2.2993088687889602 -0.032913110609770105 0.10591589181242791
C 3.093817428091243 -1.3053535801543612 0.09681255545575643
C 4.069257308363591 -1.3415685138660491 -1.0822415224866648
C 4.949521513941078 -0.09253476434703631 -1.1099762322399216
C 4.106823137783461 1.1709924773500164 -1.1236810974468776
C 3.1306906552376907 1.211208532578781 0.04877923383025887
H 0.3905930198090658 -0.9291808874891339 0.16114231034133444
H 0.4239420343848169 0.9242961415089901 0.12792365614577553
H 2.431493592185256 -2.1708569408010376 0.07770921048965151
H 3.6752302418001617 -1.370220741882509 1.0347619715262522
H 3.4941538507280683 -1.3996795873340317 -2.010384207697381
H 4.6891377356139845 -2.241913293193121 -1.029707598559033
H 5.6104558750289 -0.11839002184520854 -1.9754542317376371
H 5.590322007068701 -0.08786132307019769 -0.21649413454978883
H 3.53792861534006 1.2126278680497136 -2.0644928938350025
H 4.755193237605224 2.060083503607173 -1.1047842242579127
H 2.4911865615459625 2.1015554581419016 0.0026327413086874116
H 3.714306972316134 1.2948727854937028 0.9809142034913826