15

C 0.8529574340742478 0.04425933976381531 -0.16717153624571135
C 2.1662338389253573 0.0520838998444729 0.09652147595534752
C 2.9247314344996047 1.2837135767849113 0.24554262745470623
C 4.2344445549691185 1.3011960998506884 0.5068974119080485
C 5.0440083433396214 0.059064479775764095 0.6669883677193726
C 4.238428454288442 -1.1848389320620565 0.5084282250014349
C 2.9315806189836717 -1.1808138888802715 0.2446098109990797
H 0.2954669223483286 0.972447509377008 -0.280835521368715
H 0.30420270852291553 -0.8887686195284793 -0.27109986296137195
H 2.3737022653327027 2.219973536599929 0.13242591449170346
H 4.750912388557369 2.249599271845834 0.6062464035757713
H 5.535428823465552 0.06738403223715662 1.6466095493204673
H 5.87120928935036 0.06552732138270018 -0.04853374835950205
H 4.763659923776746 -2.127748578668883 0.617432992338824
H 2.390780011100141 -2.115654163449421 0.13680898462686097