15

C 0.9815287142732663 0.12307961487252467 -0.32136979962955986
C 2.2712346845572724 0.1046331292599716 0.03057099216582466
C 3.135413241055118 -1.1147639709922774 0.2531313289919697
C 4.485301408688489 -0.5564245886192867 0.6161976424822864
C 5.5931170120014535 -1.2435559605705016 0.9129008577651998
C 4.365991330032331 0.8944092251695899 0.5928327598134513
C 3.1093170884225603 1.2609208850648752 0.2623157475314784
H 0.4169018485492991 -0.7881815251759527 -0.4726040762555049
H 0.4529316291723853 1.0597473238334323 -0.45317213180873134
H 3.188503503382192 -1.7383982408333545 -0.6471764367307697
H 2.7343941674157857 -1.7387993328859392 1.0530227009431938
H 5.60238633716518 -2.3256595779746285 0.9037303293586684
H 6.5217642842348935 -0.73823733758142 1.1593312449036153
H 5.182492325788193 1.562762239871196 0.8164645620028994
H 2.75547838722075 2.287923912130523 0.16554451332414008