17

C 1.1394926996920332 -0.044075372794648585 0.17847726874918965
C 2.45542193883363 -0.04958459575898026 0.03559812768189785
C 3.35290429194 1.1568832286643866 0.07210407106090007
C 4.494420167910543 0.7778355174913549 -0.8714879857956029
C 4.659263924331224 -0.7011842238338883 -0.6489104755425731
C 5.792614156870417 -1.388739744066856 -0.7316414533609534
C 3.311671503413382 -1.262865472707858 -0.2348864113269837
H 0.5899733652306917 0.8827932841533066 0.3460003095989168
H 0.558219271312346 -0.9534709832789207 0.11958742218936043
H 3.746881847176191 1.289895380750478 1.0822264813126725
H 2.8346634955052514 2.084429162882749 -0.20804055189328322
H 5.422782058639232 1.3354011406385216 -0.7020618411409892
H 4.18881907786417 0.9527435641669725 -1.9146942747544928
H 6.719891348296361 -0.9103345045727814 -1.0142034633232258
H 5.827548483038063 -2.4505348066611785 -0.5375412373033273
H 3.4043889171878505 -1.897342567844965 0.6428968196914233
H 2.8761428531756317 -1.8786796620332675 -1.0337146916428388