17

C 0.8487864712520328 -0.0917804292368943 0.28054702080865396
C 2.167323209111897 -0.0644626575927018 0.055816017403595444
C 2.9013132763826492 1.1993567429513265 -0.28548417596113135
C 4.293902819537513 1.2246356594437715 0.3275564811303129
C 5.103528508025407 0.00646145403172058 -0.10651239443612966
C 4.309058581512765 -1.2556684550603552 0.00673852379602451
C 2.973038487394784 -1.2721141935193925 0.11074054410500635
H 0.24339493455902148 0.8111220953811837 0.24931774024918563
H 0.33585731967246296 -1.0220028514045276 0.4957534576077867
H 2.3239135883373967 2.0783101146048106 0.022360043202347666
H 3.0002816557546397 1.2611280968981562 -1.385455517995227
H 4.203160676138254 1.211323362620371 1.419400535691231
H 4.81606864026064 2.139385939276189 0.0695848095080684
H 6.015787547504151 -0.08326138268960573 0.48684206043309514
H 5.441176640267135 0.13147243930894537 -1.1499242417776443
H 4.859031903721671 -2.1932484364054687 0.016126709915418543
H 2.4565387739171967 -2.216456715275378 0.2265815800647373