19

C 0.921084176981758 0.0741227568549172 -0.08339004609670417
C 2.4112671422435246 0.10584533060458122 -0.03475093219504321
C 3.0950409005161297 1.244494515744041 0.08405573571025086
C 4.591373298329843 1.3280517408784769 0.09637164396700952
C 5.247968426844914 0.050207101475880984 -0.3867906297369853
C 4.579025761172245 -1.1593628264884346 0.2497173184181945
C 3.1054156456379993 -1.2287549923696077 -0.14214368814148903
H 0.4949195342751895 1.0761980388194379 -0.028149831399806723
H 0.5106836103549552 -0.513666995843736 0.747195799604525
H 0.5693033361690325 -0.40452887869538406 -0.9972375130836634
H 2.544518049025382 2.1742198500210614 0.17934012258401205
H 4.941825191993655 1.5759665203164335 1.110417033186682
H 4.907114902143784 2.1782762800768585 -0.5321458433580563
H 6.318552863431236 0.06243848198847051 -0.1569847764931864
H 5.152242671457543 -0.02754812827903711 -1.4756033150278125
H 4.659411484181001 -1.0864250961713704 1.3374584431265835
H 5.086254376893343 -2.0821908341725104 -0.04668110044958699
H 2.584512338626373 -1.9561379796867988 0.4873164045332777
H 2.9997342251460815 -1.6030864665012603 -1.1647590281644975