17

C 0.9857076005346103 -0.04173248894583094 -0.08092437687338236
C 2.4748725333988655 0.00533826131094544 -0.07639011815857322
C 3.2947067591512504 1.0773925209910384 -0.07738615139413389
C 2.937591604982929 2.515923061099521 -0.07535163077948155
C 4.6867699528463245 0.5940496054935782 -0.07635016547272536
C 4.711364439736551 -0.7407111465612455 -0.07478024047929331
C 3.3127520786802216 -1.2414022444338235 -0.08241310641817197
H 0.5584838456032687 0.9616919148303918 -0.08286676375883638
H 0.6038647477046759 -0.5656425852355192 0.7947316286629728
H 0.6014448583089986 -0.5687466791567689 -0.9629609304080693
H 1.8632378626246855 2.6791314627703207 -0.07701022762128973
H 3.3518955442081317 3.0258619772506994 -0.9516878682720508
H 3.350854689764337 3.0211170662288604 0.8089141198935866
H 5.543339627503444 1.2539952249146598 -0.07641718519684207
H 5.591845527602044 -1.3719516310852868 -0.0782863030194539
H 3.098127925762773 -1.8796009714974304 0.7974242900636592
H 3.0984365503931786 -1.8705150910243546 -0.9548541802121799