17

C 1.0537582866614412 0.066203208479589 -0.14306324416506191
C 2.5379966146016444 0.08780494669883113 -0.007451496511209042
C 3.2614370067090515 1.2184192817673272 -0.025076603166700517
C 4.705144228134213 1.1916431941535117 0.17528790756633958
C 5.385389153601259 0.05244163179789769 0.08530738278260352
C 4.672237444916773 -1.219474631008136 -0.261302648930795
C 3.238762613289712 -1.2178211098552818 0.25696483922838026
H 0.6403370934600019 1.0743833439677826 -0.2563981534439927
H 0.5917691564787121 -0.389763656784775 0.7383297750739543
H 0.7455368658442205 -0.5322670959028619 -0.9983282595529074
H 2.766096626935778 2.179520708117892 -0.1562017582664912
H 5.215230904010577 2.1216270661933083 0.379354246984679
H 6.4619178074522114 0.04032535871120562 0.20325691252338413
H 5.207993442711164 -2.0876385181249013 0.1374924840965045
H 4.667500754877187 -1.3404639636671665 -1.352736907745841
H 3.221655751299962 -1.3880916877296878 1.341787374601402
H 2.677579218983813 -2.0428223979253914 -0.182337189393296