17

C 0.9976218797078937 0.12520713228117275 0.03321224996363
C 2.485661700862233 0.09388383750060492 0.040448909420462184
C 3.3331299224071835 1.1381236520761358 0.04335948219174104
C 4.708459334807062 0.6554808894544191 0.04704706399602098
C 4.719282768522372 -0.6885802772292755 0.047620749864073726
C 5.89154398553044 -1.6068981212542146 0.046539234329983845
C 3.2924325349339627 -1.1643270983590261 0.03727984569018671
H 0.6138614480578563 1.1480773836369476 0.031118900060288376
H 0.5770539198950247 -0.3842906684386046 0.9117710296340685
H 0.5864672997143646 -0.38922213938253425 -0.8414050313389956
H 3.0486218163109613 2.185004450833065 0.039438507326622095
H 5.589750001963545 1.281598017490152 0.05114126926934573
H 6.823488754911835 -1.0518348273593574 0.05330738880630423
H 5.887790605385605 -2.2659839697198527 -0.8294792827738943
H 5.881615897699911 -2.2633956359115555 0.9280817352716729
H 3.069837087787124 -1.7862283480987637 0.9199485960993797
H 3.072002416561215 -1.7889204863315025 -0.8374634355687939