17

C 0.9042847789681855 0.009517410351988541 0.14469826611657408
C 2.3834318350325328 0.0889176393474557 0.019406998590561598
C 3.047225644045101 1.2369254881037408 -0.04739359018962187
C 4.521458667515393 1.3664838370949053 -0.17427378897062815
C 5.219979499551272 0.050706963647443724 -0.2191216033325934
C 4.586969543624431 -1.1150863790693548 -0.1596442922729931
C 3.103634941996903 -1.2331959145080982 -0.028675671441068872
H 0.44765203051041613 1.0015472364116025 0.17334327535620647
H 0.6072610995428225 -0.5213189699046367 1.048847907884849
H 0.46691037007536684 -0.5374775603159586 -0.6945829810156338
H 2.4730439860663243 2.1649201171283456 -0.009471939132499812
H 4.922167729715337 1.9610098089218555 0.6651760598197244
H 4.773035007452504 1.9536258910773472 -1.0646889102898542
H 6.303549261868366 0.06765914202954007 -0.3101978710481226
H 5.156035267574528 -2.0398932623407005 -0.20053274771773683
H 2.846372120445151 -1.8180465565824266 0.8633019895104458
H 2.7057599921834847 -1.828781650093512 -0.8616558447299203