17

C 0.8980589808990672 -0.11124630934974797 0.07965852317234749
C 2.384760591241234 -0.030660325330936114 0.07300098078166717
C 3.0579703132048888 1.116961038045582 0.06084781816035434
C 4.54976405392187 1.2355346251065864 0.0448272705665678
C 5.322955021070362 -0.1044700835303097 0.04715409996705369
C 4.46863330755457 -1.3315504404277672 0.06036181553632982
C 3.1406005376964554 -1.2969268870220578 0.0699384075490315
H 0.4438670648905932 0.8739942781073018 0.07737429180387884
H 0.536072147468829 -0.6519844208856037 0.964363880473181
H 0.5269404398852782 -0.6624054267770094 -0.7833841888910658
H 2.494617921914161 2.059741780829047 0.057161872977412605
H 4.847884579481106 1.8430015563433786 0.8999333290957833
H 4.835629152835238 1.827545933127602 -0.8319658301550672
H 5.996001789275802 -0.14494157686883155 0.9138084141263425
H 5.982336304340202 -0.1563253903224274 -0.821000571935807
H 4.987783637361552 -2.290033913065567 0.06393236500619143
H 2.572220820314059 -2.225143689870094 0.08405503742703634