17

C 0.9823136559400066 0.0933305879477477 0.06150846698033092
C 2.513361942435294 0.08929198230225976 0.05916893844341074
C 3.035981691625498 0.09307539784606358 1.5009495576650504
C 3.0594977559766567 1.2527999161430499 -0.7277064518005032
C 3.7866040453224783 0.8190577126100075 -1.7620348940649126
C 3.780666912718399 -0.640007302417864 -1.7605957625663293
C 3.05420934202485 -1.0797630431419785 -0.7183890447891725
H 0.6008296262600483 0.9779286261113883 0.5739695307905268
H 0.5945514547402754 -0.7950474359811164 0.5785720711407175
H 0.5874439478275946 0.09019980770264409 -0.9596023812120454
H 2.691876927094949 0.9804836975672581 2.0365769405106335
H 4.135951457480454 0.09498588549068841 1.5116219109983484
H 2.68719023468868 -0.7945316637813349 2.0358704375676933
H 2.8631597558246185 2.2916642351947587 -0.4545189320269087
H 4.29274246603925 1.4358682285295588 -2.494156522653271
H 4.291547401591346 -1.2581823465403041 -2.485308962477107
H 2.8677789618425047 -2.1040827720547783 -0.442966104491103