19

C 1.0647147908554433 -0.07759808496046389 0.07724926566102958
C 2.586982591426446 -0.06675544995479311 -0.00863239989226341
C 3.1077144470929494 -1.3026723032734457 -0.7786476008619299
C 3.3845836707930994 -0.7656462940540513 -2.152850056024369
C 3.3761296186536907 0.5611411936825957 -2.187809393184828
C 3.6416694440961077 1.434796340646291 -3.3695337275793626
C 3.0818609531572143 1.1371552463976864 -0.8354299562821558
H 0.7100371729727567 -0.9537564632547603 0.628976442353597
H 0.6275036300677 -0.10686745587992737 -0.9227750351375574
H 0.6907495645238121 0.8114135548907784 0.589096164920848
H 2.9945322074878518 -0.04310107616538584 1.0071061461035433
H 2.382577642207381 -2.1196672829877996 -0.7796322450968088
H 4.023431791142782 -1.7034946431492934 -0.3312997213478369
H 3.6048606328920965 -1.3971243993958917 -3.003429174423252
H 3.8573394329012096 0.8500828888351447 -4.262051818935784
H 4.495391473709824 2.094947768562348 -3.172888585883001
H 2.790334342401477 2.0950980007687607 -3.576534631073209
H 2.345332233814169 1.9457629084028902 -0.8711909038558561
H 3.9944909666112087 1.584889949343085 -0.40708796626593863