17

C 0.9788125670390473 0.06369600648405331 -0.4150355890819869
C 2.3839215938690366 -0.07083813578365573 0.1532924730815673
C 2.628876139384618 -1.384646949717374 0.9305134398440069
C 3.3118702124768453 -0.980347448994983 2.214497651417728
C 3.888278691268608 -1.7839350875677848 3.112136298080523
C 3.243204973889324 0.4779968776718319 2.2843602628584705
C 2.7268595372663667 0.9843505018523461 1.160608836130485
H 0.7695512446344125 -0.7344443263260808 -1.1351371443406137
H 0.8461188990052028 1.0141865965898913 -0.9362420197031213
H 0.22721968024731135 0.0037427724749992007 0.37942464438299905
H 3.0977169239385893 -0.0012879407786078071 -0.6847344317279196
H 3.207144077007317 -2.108420047855285 0.36476509176831207
H 1.6622873052388853 -1.8494361855654007 1.169793182627258
H 3.9103255820379594 -2.8595413480229146 2.9718774742431417
H 4.351005624722227 -1.3971802507103672 4.010685116476639
H 3.5969238607531864 1.0428626919433563 3.1402260674644875
H 2.5902867328106787 2.0447647621871328 0.9682423918658897