19

C 0.8799144267326809 0.036567907445771375 -0.47143365678853105
C 2.278482731911586 -0.023518951618286123 0.11254736401482852
C 3.1200336411875256 1.1931140687785404 -0.27358898585763947
C 3.3549319877525288 1.2680192464129327 -1.7806763343333607
C 3.72984890428047 -0.06571285770218212 -2.34967984532169
C 3.5903714448979103 -1.2116274925480521 -1.6938905782416678
C 3.01773764533855 -1.30345239651298 -0.31527870631629373
H 0.37420006141923323 0.9710286834014927 -0.1976593174165826
H 0.26491083389072206 -0.7892135977549026 -0.10036351352790529
H 0.8989517276953252 -0.04281568646904658 -1.5627294950754678
H 2.1874351865816197 -0.03838222800446708 1.2078398923986102
H 4.084165116067754 1.13200262950264 0.22805452718421976
H 2.6366977891864685 2.1128510037202273 0.07017604955622019
H 4.1453309255017095 1.9992685175605196 -1.995773222853712
H 2.4589663310410628 1.6427875687921203 -2.2942187429069714
H 4.142238820702701 -0.07761722617673111 -3.362905756998432
H 3.8970670398812817 -2.1372528128690447 -2.1603506960696532
H 3.8198605228645177 -1.5221803725108443 0.40197230555924873
H 2.336055399740242 -2.160441232762689 -0.2524568514406873