19

C 0.9661161495403762 -0.03186026658755391 -0.23600670880584002
C 2.4569567351003156 -0.057471039955108855 0.008688764054033347
C 2.9957173714459984 1.0960960367289632 0.864629251500092
C 4.396585642359009 0.6373072912495235 1.2645377543098537
C 4.288582026033231 -0.8776002584929515 1.3541113831701335
C 5.206788021379995 -1.682520636834651 1.869439875868688
C 2.9602899015029744 -1.291596722412033 0.7685288808626444
H 0.6656447327128281 0.8764195695897256 -0.7715129187716574
H 0.41885852703589604 -0.06414960636216308 0.714335425510789
H 0.6374417849905243 -0.8915325338805798 -0.8324592896063346
H 2.9752492444043703 -0.024456072967056396 -0.9632381272060767
H 2.3604889050941615 1.2002580725670073 1.7476116288525163
H 2.982189253363081 2.05028387449688 0.33905400679476333
H 4.756979003093997 1.0888480092651345 2.1826777250095906
H 5.109299998193396 0.8915619083308274 0.47564572333006144
H 6.131027174846929 -1.308590314544108 2.286432681114567
H 5.0652190469940095 -2.7623367876667104 1.8801249541831002
H 2.257018407938725 -1.5112299810427696 1.5789539369202976
H 3.030300006996638 -2.1911921349553065 0.14765799857381146