19

C 0.8953797357451035 0.04779993565565392 -0.02196224296736312
C 2.429435681403314 0.0013398883343053699 0.05802717418552726
C 2.9622073782136327 -1.2770362226337262 0.7365204895263775
C 3.3319414425875724 -0.867653317489356 2.1670552702077606
C 3.4482810152648375 0.6308369232607922 2.09720647823746
C 3.994585632497705 1.4376751173663291 3.2409229034321663
C 2.9695754002123627 1.085133381392199 0.9443301308760429
H 0.5181814688398899 -0.7473173126786476 -0.6701191891766836
H 0.5507724914052714 1.0058672777379356 -0.42030941069784805
H 0.4581091131904929 -0.0757775768298987 0.9779236367920747
H 2.8184516698591424 0.08713967859227115 -0.9598097332058063
H 3.8685789757525324 -1.605823518470955 0.2100064117630238
H 2.246506142075164 -2.09847407566997 0.6970078831117739
H 4.262791497428391 -1.3396940802293766 2.5042501925090086
H 2.5645960411245547 -1.1503338841553712 2.8967632025932692
H 4.301334508820081 0.7948570228616433 4.069113949485413
H 3.250262064274963 2.1368142775228907 3.623600322605334
H 4.866139010331317 2.0230029609402935 2.93434506006306
H 2.909405624951574 2.135998386332367 0.6727723987344177