19

C 0.9453526746380627 -0.001885421834299249 -0.03234011865026708
C 2.455491376844706 -0.08714780874827627 0.16029987832107073
C 3.1836883026488034 1.171546140933931 -0.303554153742139
C 3.4252016575607644 1.167190894238388 -1.808635725532934
C 4.2886304469177645 -0.017851010080210658 -2.2194026096438093
C 3.834435925504702 -1.2809005661151591 -1.5500300879806188
C 3.013037553235474 -1.3058385174248959 -0.5116835690419893
H 0.5320705921713368 0.8254881132607637 0.563368666332509
H 0.449522019886835 -0.9196691003304653 0.28098603953004236
H 0.6864922929254277 0.17365968711066412 -1.0785794518052434
H 2.6366159076154343 -0.20000259172171697 1.238199618451396
H 4.158561669830842 1.2345474173614008 0.1948168881094095
H 2.618463862849944 2.0628414645885083 -0.0018831053280600795
H 3.879920162832011 2.1032749440427065 -2.125572855737408
H 2.4570960572431595 1.1029040785908508 -2.333217935258994
H 5.33462538626594 0.17455299557857426 -1.9651079167549566
H 4.272736895070024 -0.1407556738867679 -3.309805881221145
H 4.208960221529007 -2.2169797098216 -1.962381733773007
H 2.710147976567295 -2.269134753964802 -0.09496419601798556