19

C 1.5573126144310205 0.46273728717896306 -0.40421371688821994
C 2.929884160993061 -0.11320796108510386 -0.08470647642931312
C 3.286131023637922 0.0036816615479593833 1.3789846407845874
C 4.717323513543052 0.011928631151497211 1.8186436746817947
C 3.8777962653638127 1.2727708595982488 1.9002967277380496
C 3.5385493378018498 1.8532949044194942 3.209116529448992
C 2.4902548872512704 1.5319004415594368 3.960864140207176
H 1.3183201697819151 0.36847098412449875 -1.4685999955279443
H 1.502863415357267 1.5180256567961878 -0.13746957913599242
H 0.7716580151063565 -0.05662524027653193 0.158287004536008
H 3.6939977362376832 0.4052238287833121 -0.6749107389934722
H 2.9616618947413342 -1.1619389455142068 -0.386459265511194
H 2.6026718064319163 -0.49830780653904266 2.0496449097071587
H 5.485875577796864 -0.03589023085943711 1.0505990660094067
H 4.960377489584049 -0.4670366937118058 2.746699800625386
H 4.1308814724029554 2.015936115489268 1.1399053456797434
H 4.234950426082163 2.6091059310037132 3.5799078339792363
H 1.761307569343918 0.804865768127708 3.64822127705041
H 2.337936552745884 2.004446894260633 4.93510628475808