19

C 1.2580113049031514 -0.7227202991275206 -0.5953274835482771
C 2.1211961107689206 0.11605451363885758 -0.044817433006797955
C 2.9750583840937925 1.0921376393749054 -0.7721467972298975
C 2.764657279678585 2.5487546107628956 -0.3533710505720213
C 3.9905297125297245 3.282704670579772 -0.9094542501464545
C 5.107516017150662 2.2262532161102246 -1.0262281875367862
C 4.481898248214325 0.9104985274608974 -0.5380394585648778
H 0.6693367125733727 -1.4089134790010382 0.006107671106000084
H 1.1099884058320175 -0.7551225108176912 -1.663405584469146
H 2.241397018995065 0.11220182095616646 1.048633534843963
H 2.7684089971338723 0.9951366082966252 -1.8518056816568846
H 2.7487923385438835 2.592166024374186 0.7400163851690059
H 1.8182368291859596 2.9568157770196697 -0.7013746570507422
H 4.27573921118104 4.119399647509702 -0.2723771582235397
H 3.7637273701935157 3.710543832201966 -1.8879467675220893
H 5.985818732776039 2.4821962981965213 -0.44333301041271156
H 5.434612492820638 2.1317575933244863 -2.0560320547970163
H 4.655522659570963 0.7702500765801723 0.52834263098256
H 4.877374611415564 0.03226616498441118 -1.0421056598888199