15

C 1.7909730395730943 1.1222537868262654 -0.32807162968329706
C 1.8957266587259203 -0.19905370831351318 -0.1972446779043681
C 2.7006732135026565 -1.0700950216836829 -1.0396887049458268
C 2.8122029768019896 -2.4085141099296843 -0.9053102716239784
C 3.730059765069125 -2.94520031635187 -1.948212082536956
C 4.130244334469889 -1.7325523655201192 -2.70454374716866
C 3.536218716670604 -0.6502890050328072 -2.1713643728009675
H 1.1653190629211796 1.697923541345747 0.3411117260241898
H 2.3082893376668627 1.6748282013728377 -1.102195739186297
H 1.3549753307473658 -0.6906756450935947 0.5930726433603709
H 2.3201969919724257 -3.011907842737676 -0.14643995040280355
H 3.232497996562372 -3.689179864150309 -2.5905333168807063
H 4.600674339706329 -3.4682733381070605 -1.5134461802621382
H 4.8079405157847015 -1.7386431046946071 -3.5502799980120634
H 3.643695031511102 0.3628754782319241 -2.524474016024199