17

C 1.0753059910479021 -0.041338190925809884 -0.2014236700614917
C 2.2663711902895707 -0.06054647750331262 -0.06673574953786036
C 3.704146048904858 -0.08442349444054864 0.10808224502299117
C 4.268156483337959 1.085179633641347 0.9321595459630698
C 5.690679303605489 0.6344855893359882 1.286143966038176
C 5.6617100142168395 -0.919825098573369 1.2649858813720447
C 4.232084972652543 -1.3066802049264554 0.887009186890046
H 0.010831062353142188 -0.01922048742825644 -0.32815952935386505
H 4.178163839930395 -0.07562467918982266 -0.8762409802222431
H 3.660747838032372 1.198696531403724 1.8247987003188448
H 4.233554066531891 2.0226552942813534 0.3856094248029539
H 5.99604997055032 1.0226300461289288 2.2633252190523314
H 6.404273240407911 1.0142856261854372 0.5555632831233787
H 5.9549037968132446 -1.3461609276427833 2.218420838036912
H 6.36149294005853 -1.2913888101848139 0.5169255122799421
H 3.6073281123791334 -1.4400501350094164 1.7835964298123017
H 4.164768673762415 -2.2319280018727055 0.3086541344390429