17

C 0.9315659745983569 0.203678669644789 0.1719177006049811
C 2.4285156889335124 0.0681320852503021 0.12587028250534169
C 3.1102529786147057 -1.0557866480085791 0.3486572380618423
C 4.622171228851334 -1.2109126301873314 0.306152551994701
C 4.883104065850505 -2.692944814900402 0.6310341838583517
C 3.5136545969673127 -3.2692500304583794 0.8352351186492828
C 2.5588273266498605 -2.3627042461696974 0.6828311581944142
H 0.6203926093924177 1.218738751856302 -0.04062102048973862
H 0.5315537095369782 -0.059830071529297944 1.1605599959915254
H 0.4470688192874869 -0.44990099945096157 -0.5485593380625859
H 2.994712463862335 0.9671885401654913 -0.11427027579091256
H 5.103119960317434 -0.5517029711071705 1.0295660746734703
H 5.004479113179998 -0.9505117544245645 -0.6754422961000395
H 5.510074280916788 -2.8175006271952476 1.523143905882867
H 5.418544711600602 -3.2097744269604753 -0.17678917874645975
H 3.3522023904452865 -4.31073118777756 1.0937404002906876
H 1.4964817642117292 -2.556746099247079 0.7781812911464298