17

C 0.9965128878292153 0.4460845624524876 0.3887412955687674
C 2.426991759435369 0.11882922525329957 0.0010852431917517539
C 3.0485101121154425 -1.0160933407603217 0.8291710801926434
C 4.482527128578252 -1.276571033532754 0.5176221660245685
C 4.651545157074375 -2.578296328156908 0.20592883987793728
C 3.3608839673129007 -3.2481727149143618 0.2909546643023809
C 2.418636116496064 -2.3675024531020705 0.6396864446310455
H 0.6122117108974126 1.2729513852989744 -0.21019639818309002
H 0.9265151710701661 0.7344613536073151 1.4383494815423623
H 0.32941198821175505 -0.406275283951909 0.22650382055733528
H 3.0504174582392656 1.00719265687324 0.11822655602162835
H 2.4832756047469484 -0.1610691099985437 -1.0562944258120808
H 2.9641886570056153 -0.7342687066828287 1.887357409750275
H 5.252532815069676 -0.5107518801134506 0.5366557900103094
H 5.589701745872371 -3.055471993919041 -0.056637443751719925
H 3.2103939984019285 -4.31013693065659 0.09762272271549685
H 1.3736016257543293 -2.568792399518277 0.7855946580952788