19

C 1.035813377570079 -0.0017669498488478525 -0.009703581126614205
C 2.5513561965836757 0.10618229545472858 0.006824580061438632
C 3.1177306616442193 0.8007246575914289 1.2398804601615692
C 4.659205793158086 0.7255343992023151 1.2697509688045792
C 5.103665382713039 2.1026219384135887 0.8745305822447303
C 4.089188315783285 2.9636292307556733 0.8550437337400978
C 2.7987165588679335 2.3200857596706497 1.2497269299385074
H 0.6857692298367215 -0.5124859392960447 -0.9183967062149662
H 0.5560428322331433 0.9755017784003679 0.014483449523738824
H 0.6790258853145117 -0.575371154065193 0.8439542642393807
H 2.9020200586387634 0.6386325250320763 -0.8873799649562182
H 2.9811756966021234 -0.8978010064525278 -0.05557203890085223
H 2.6909493092127934 0.3173174892907818 2.120264316316086
H 5.041001540957213 -0.05057562310615369 0.6060200525690683
H 5.033192354781467 0.47869750289695073 2.2731656921613195
H 6.1370651254344395 2.3528692330466545 0.6462301282849728
H 4.176552457466856 4.016225734723303 0.6218893109843366
H 1.9828395477306981 2.5711962020427928 0.5647881123010011
H 2.476099734753087 2.66635623294061 2.234359775222567