17

C 0.9235656026452387 0.09655769263521667 0.04062659307122069
C 2.3758237566026414 0.07656919411423183 0.025221703121812173
C 3.576383560414708 0.0645419614586902 0.02603916976876422
C 5.0085562344429935 0.048435061138793006 0.013536873765958923
C 5.7572149118503875 -0.6652965603941755 -1.080475854505084
C 5.78377311300944 0.8238134517830146 -1.0369619975865387
C 7.032374794300682 1.5549610092678874 -0.6564217509552699
H 0.5303938502012829 -0.6059867579194397 0.7812995243680936
H 0.5259925471937175 -0.1971532376257286 -0.9400793063239582
H 0.5388623592859693 1.0922258940991303 0.2746625463202738
H 5.476200525668375 0.016259911580627867 0.9946108308983596
H 5.168284748258095 -1.160783746188684 -1.842709295313692
H 6.667442264391913 -1.1946814333116194 -0.7954415027126192
H 5.157089578807004 1.3228341808593453 -1.7637539284892374
H 7.598947676543392 0.9996519214882897 0.10374121288270623
H 6.797145254668718 2.544162965725798 -0.24158370902488194
H 7.684828414581447 1.6958476263801223 -1.517943026449052