17

C 4.89974878461398 -1.359423497046765 -1.9836989882483411
C 4.333122969688156 -0.7293135559148706 -1.1297468095586172
C 3.677785955132922 0.012624059772756081 -0.0684326589682088
C 4.181588462655422 -0.34862902162649584 1.3187963400457892
C 3.473803740708572 0.26617690661995325 2.5395764871369373
C 3.6638203755222474 -1.0759093575572896 3.2753984426442306
C 3.855169602290785 -1.7470349244489332 1.9022239268198948
H 5.387850542399054 -1.9121194967019934 -2.750934542622669
H 2.599449358863503 -0.16655758192106865 -0.11407295613900933
H 3.824719268105091 1.0846083309375416 -0.2374397291040898
H 5.260216890357893 -0.16596212235185068 1.3768877889758735
H 2.4203203190412976 0.4603605339521655 2.3250388767945798
H 3.901060594474529 1.1695918043664533 2.982999076705602
H 2.8519467069930626 -1.4303624144249965 3.904351534542538
H 4.585672782099107 -1.0840999014781685 3.8538839990128206
H 2.915206495572255 -2.120899257827158 1.507017085959898
H 4.6115817879013585 -2.5195769490708697 1.8023213893596657