15

C 2.4526289287264516 -0.9183653329158007 -0.729139739021719
C 2.009536896054208 0.21684851483769976 -0.18565350215052706
C 0.6045327056308178 0.42125316115890465 0.03460731811835354
C -0.5536671428890765 0.6218720362427563 0.2501156976316659
C 2.8804501100022932 1.3530138349543857 0.22503453705323723
C 4.2700395728293685 1.5223399988602118 -0.30137698663681733
C 3.1916014804630297 2.4548918841983243 -0.7473432761120511
H 1.766011374062976 -1.7017128972746318 -1.0289403980177938
H 3.5066867676023823 -1.0869827719560727 -0.8738445824583472
H -1.5890181757017168 0.8008886784399278 0.42940709524315485
H 2.7093736802804393 1.6776412731348136 1.2485088070456127
H 4.633736309629645 0.8026635646803619 -1.026175217092391
H 5.02626861662604 1.8833365481342672 0.3826360282187564
H 2.812443300211272 2.334777044876018 -1.7544994897044754
H 3.189220808655799 3.4756434228155375 -0.37596838638670105