17

C 2.3175511957560486 1.2361628157449378 -0.6117904146586469
C 3.0884276570228764 0.16586722768654216 -0.4057218498054566
C 3.470836320948572 -0.3404988800340243 0.8944873032442555
C 4.249036406913592 -1.4092523052584611 1.0784659114462234
C 4.6869210380865045 -1.9590095500820845 2.3700317720383017
C 5.950323310047372 -1.4435224239144675 3.0302905755308642
C 4.611763228403583 -1.191806305393195 3.6482872931368617
H 2.0669920380212936 1.5673150852734063 -1.6086513315417732
H 1.9109997999637762 1.802493871856672 0.2264303618649887
H 3.4779945397562986 -0.3730476568817486 -1.2676110344631712
H 3.076528392382148 0.1975014586464349 1.7573671093598497
H 4.607660742747341 -1.9412043466511317 0.1978110527479009
H 4.553759614073381 -3.0361005933542464 2.460102041365693
H 6.437831104526154 -0.6090898172039542 2.5466690653056467
H 6.6157961963830525 -2.155772905409883 3.49419880359496
H 4.2257918931311105 -0.17576101702462035 3.614148497269113
H 4.351196582855763 -1.7270550510964446 4.547946355927246