15

C 1.020366137322375 0.025036980814829603 0.1741436552526506
C 2.3286770896042315 0.15899273440715755 -0.06326979471355784
C 3.0214089194740446 -0.46356655731427837 -1.1331342553949961
C 3.6585832394064144 -0.9651527427953855 -2.018777774898289
C 4.393854116106952 -1.5786293540709209 -3.087916189658268
C 4.024534128303753 -2.9567617352950553 -3.5635727874038814
C 3.739574856331798 -1.7842054448061748 -4.429238119836378
H 0.5550143781792379 0.529063383936256 1.0121746071398778
H 0.38650844304770215 -0.5897256512237734 -0.4559006148070571
H 2.925250904333567 0.7858998187365835 0.5951179527616476
H 5.449146795979646 -1.3406531059732902 -3.0984120364292798
H 3.181779308857851 -3.436902027577575 -3.0782931801379565
H 4.830180784239176 -3.625786028519157 -3.8372066324787615
H 2.7156612182037603 -1.4452605684652853 -4.5291654839419735
H 4.362555365819962 -1.6222322172917565 -5.309815665720128