17

C 0.8916682895065895 -0.2022387373487769 -0.023301783225802
C 2.0839907801284614 -0.007456611542176344 -0.04635081574364469
C 3.5135424098817256 0.20260142194913677 -0.08559260767334304
C 4.289705709790229 -1.029728077959721 -0.5722788449964812
C 5.770939673620326 -0.7925586582063162 -0.5920024746027686
C 6.573484865275755 -0.9738508437792209 0.655401783810046
C 6.718303275449133 -1.9550981186474312 -0.4680188281381256
H -0.157261427952567 -0.36038715751019434 -0.006905244803756174
H 3.868794063196017 0.478230023611923 0.9110930089896986
H 3.7389198398398245 1.0590468526802135 -0.7398350705125313
H 3.9342039414437857 -1.3007690212467278 -1.576129336409646
H 4.063699434710611 -1.8796167688837089 0.08454528035090761
H 6.093331653456211 0.011952447410087708 -1.245956775283264
H 6.0460977703857335 -1.3055352160403912 1.5475160726966612
H 7.401269322443358 -0.29355876913251483 0.8580008292041235
H 6.2830171062254285 -2.9338511719258666 -0.340286116546687
H 7.635816833338501 -1.9321464980630196 -1.050648968368873