15

C 1.0468888968965744 0.34610641909721046 0.46609486526243527
C 2.2439339017753968 0.34939511441452764 0.6273279747785533
C 3.642967193165644 0.3999009780156891 0.8241229994682299
C 4.446004774521552 -0.6729889320793221 0.7449879175346754
C 5.899687474438102 -0.6756421538149019 0.9849507376575443
C 6.616965147580286 0.4513099822110868 1.6396976774665382
C 6.437882760303036 -0.8410694146488819 2.386641433802732
H 0.0011856578664908132 0.32999052627006825 0.32064423523452895
H 4.063779284500456 1.374012817850786 1.0467478151813243
H 3.99897007020425 -1.6341897125248313 0.4941291539518664
H 6.461881399812601 -1.2236016657625282 0.22570385213806368
H 6.041751762137913 1.3021434041759021 1.9784943588533803
H 7.610175949642454 0.6906524001118717 1.2782447395389203
H 5.707927527962649 -0.8554761788402838 3.187650258418082
H 7.289546333998176 -1.4787147068208621 2.528816392899068