19

C 3.763105272020797 2.188908535724377 -0.37547147156149296
C 3.1883796381217167 0.8094248132321142 -0.32029019691381183
C 2.5152568638940895 0.2821212834881059 -1.336700449054356
C 3.4086600500563726 0.04058765033450457 0.9532504459922831
C 4.861938248740492 -0.18810000897987839 1.2987394097715053
C 5.261306143116757 -1.400898990679302 2.074025986306229
C 5.626624948755304 -1.283097148208633 0.6156451061787963
H 3.4996693989226846 2.696307134299245 -1.3005040359869815
H 4.84487023477893 2.1656093574909225 -0.29268843567044167
H 3.3876159533102324 2.7958532713616706 0.4622279455094271
H 2.3499717235872923 0.8334224499550521 -2.250288285535972
H 2.099502036826223 -0.725741770274349 -1.282031171462309
H 2.9094384524970724 -0.931408696324102 0.8817351128610685
H 2.9301302310866584 0.5724813720757219 1.7826351842246069
H 5.430731929879624 0.7102897734100624 1.5221218294103402
H 4.479518065143153 -2.1071654901415506 2.334374843139812
H 6.056143221765412 -1.314924847982187 2.8010701378449827
H 5.088938363185947 -1.8965556247685564 -0.0965839808514576
H 6.669398164126134 -1.1137004722035042 0.3577988990174436