19

C 0.7979357366882267 -0.279587677664792 0.43253879392891953
C 2.244427600501654 -0.09929506888124615 -0.03538832456471649
C 3.0533794264598755 -1.3273689076481279 0.25293191346576727
C 4.102403976073534 -1.3894915159433272 1.045853299102462
C 2.2896341133289204 0.2471052407284253 -1.5091149978868794
C 2.1230923467204654 1.667629858482258 -1.9431853702492359
C 3.460705134168459 0.9845002985698816 -2.0697043382643634
H 0.7550812571068718 -0.47193311171559454 1.5097698001724569
H 0.32197438115443927 -1.1240623856349956 -0.08073808467878237
H 0.2086585520549434 0.6154558257929131 0.21667881397376607
H 2.6890482894298504 0.7378976384428929 0.5214757684758705
H 2.724248019809316 -2.2346892746393525 -0.26405817893534766
H 4.461273930827937 -0.5104879731416839 1.5738064081235938
H 4.647531418204908 -2.3127228310782093 1.2097871805895866
H 1.8468658899553407 -0.5061874992711412 -2.1534876495433335
H 2.0121956107669616 2.422372234140711 -1.1720149752505313
H 1.5617933766170053 1.8689051840866404 -2.8519457281455445
H 4.243537183780631 1.2839965221665604 -1.377901907118227
H 3.8094644823624377 0.7238603952491616 -3.059437099407156