17

C 0.8548536502911346 -0.01985283956525255 0.025922949787347424
C 2.3106095382893863 -0.027165344911252 -0.044965388446239485
C 3.511006834185978 -0.04431392989485811 -0.09591160654014047
C 4.9685738300355915 -0.06407819393164228 -0.17535364623876576
C 5.485271924148023 -0.2601988918666632 -1.5791163297721533
C 6.847721847967 -0.8348142368387867 -1.7798665994640936
C 5.633541658930968 -1.645048303619165 -2.126581791482047
H 0.41874858951081817 -0.1451625805820134 -0.9677877692054333
H 0.48832681561294455 0.9280916497285465 0.42808423370899057
H 0.4819818313052181 -0.8225670530086306 0.6559203685376225
H 5.353905036072144 -0.8599431411175781 0.4703809800044088
H 5.356072866765367 0.8790426610662286 0.2370309934462123
H 5.170608940514114 0.5091404112120504 -2.2831731608797985
H 7.410305781449803 -1.122935373411553 -0.8960857745093708
H 7.458787636749284 -0.45368043721734275 -2.584381453828846
H 5.3680709656768215 -2.4627358903963597 -1.473317914915538
H 5.4018006512511985 -1.8055847894530588 -3.1750280551138603