19

C 1.9056164519775793 1.244515218699548 0.3525841009967689
C 2.5750975741032662 -0.07890727438329961 -0.012986824364863645
C 3.0584857904659426 -0.8354271348385313 1.1793933852819916
C 4.3173364302531185 -1.1798919293711674 1.4070542313730623
C 4.836105895506286 -1.8932202740753055 2.5931792694846174
C 5.371504326522325 -1.126345172339557 3.7679896418631498
C 4.106689754556009 -1.920466465429997 3.8923908570788157
H 1.5257853492645717 1.7511749778656531 -0.541874530472583
H 2.6095917333821275 1.90911919647487 0.8558419075539736
H 1.0566664319524266 1.0797747464705478 1.0251194652502955
H 3.409607018269307 0.10224967348228411 -0.6929222131607983
H 1.85776128943264 -0.6972015760796824 -0.562427672510133
H 2.300170451937152 -1.1088792278245052 1.9092442298098462
H 5.06745986216883 -0.9088046783881688 0.6639953060108865
H 5.38989257171543 -2.795285456752114 2.351202533053766
H 5.281133134531277 -0.05399085498858934 3.731921231718615
H 6.266337730936909 -1.5049189124782854 4.259091335659288
H 3.1728692333427175 -1.3639059473264494 3.96950826682193
H 4.126603625424433 -2.8362902295950048 4.473188811438979