19

C 2.3037284210428557 -0.2618215517659274 -1.104302945792192
C 2.343439269744011 0.1771163606667629 0.3615287231949833
C 3.1091019836727485 -0.7527416473928406 1.2635658947810615
C 2.509038299325168 -1.3952201819421615 2.258443124379859
C 4.555475778578219 -0.8918267896255422 0.9515798444720834
C 5.4368257366093 -1.9108558378700955 1.5906457509846934
C 5.060771113258473 -2.069443127338568 0.1570459203593046
H 1.742227769422632 0.44706804254842386 -1.7097766904406275
H 1.819589842306153 -1.2475618213898132 -1.1996005544331239
H 3.3054311273543315 -0.3477120515956991 -1.5236923142535366
H 1.3242408098371483 0.28798759046151856 0.7378004042347901
H 2.8102774410716806 1.1691800885797032 0.4109438899673935
H 1.4479597288530461 -1.288179754022784 2.4332698451775863
H 3.052829697243803 -2.052066121129872 2.9389428977996164
H 5.0355748390730914 0.04608574150541315 0.7016068245065059
H 5.005842065171003 -2.5981870977563792 2.2991739653290875
H 6.45064854862135 -1.6177124764670767 1.8273872354650955
H 4.333805442343486 -2.84643929259444 -0.08802648849217738
H 5.808141780339306 -1.8898204054511407 -0.6056959295918659