17

C 1.1723552975972749 -0.2448223370940905 -0.19506950278065122
C 2.4925472077945696 0.40986830641943917 0.18187782241705633
C 3.104410730695112 -0.15692672509703814 1.3719840153870244
C 3.5875735333009167 -0.6344354241803037 2.365377495448002
C 4.178066290962477 -1.2114461524756737 3.5449092199324594
C 4.019442879150818 -2.679845855935859 3.820526786834623
C 5.350352172173122 -2.1369032206257366 3.426353654839635
H 0.7532253386299983 0.21700633608561087 -1.0947544440700328
H 0.4461050744636888 -0.13795773994541485 0.6133217072122165
H 1.3012099724901647 -1.3057326898321104 -0.38563240480272026
H 2.3448722520978955 1.4862249479510237 0.33803630008642616
H 3.1987573694751554 0.3288092449221407 -0.6560391105749106
H 4.174838185045615 -0.555625053540313 4.411115999170759
H 3.469136077991044 -3.262989215289544 3.09726760468466
H 3.867148816202513 -2.978158129317714 4.856492937087519
H 5.711254083430276 -2.3573772633643286 2.42901390523921
H 6.127848926685004 -2.06169275047183 4.177021920438065