13

C 0.9956243058833925 0.26030660077799345 0.14037578659514632
C 2.303594748214441 0.07570235311071266 0.006507187229298134
C 3.0733415921242524 -0.8848392333035809 0.8900193037721686
C 3.6692558696106685 -1.989511196760414 0.15498610872008492
C 4.158384940878563 -2.904878559110528 -0.4430268322393666
C 3.0699735146727227 0.7998984373332801 -0.9526711459345453
C 3.7434884910961213 1.3956069565747882 -1.7534935015003703
H 0.4304839857545833 -0.2986871744071888 0.8815803044347061
H 0.45734451029997225 0.962231494470756 -0.4871500178158901
H 2.399667134164576 -1.2759223884877495 1.6583253008614693
H 3.8619061153281415 -0.3403818630165849 1.419011597659532
H 4.586574902156334 -3.711875417642064 -0.9863100701959889
H 4.330817275764561 1.925369291136543 -2.4605318506875657