15

C 1.1779995595438721 0.8575529367857853 -0.03309540433647073
C 2.2764431080767946 0.38311745120751467 -0.6148505559908086
C 2.7393475986225524 -1.0024134283933797 -0.549927093411034
C 1.9124112220304572 -2.0468037391072618 -0.556055059203861
C 4.2376727729659445 -1.2087953478902185 -0.4670655554583662
C 4.951345346388555 -0.6632117644465846 -1.6175430011225753
C 5.52939117205442 -0.214131466368729 -2.5680961624805323
H 0.8880742932140583 1.9008094745331674 -0.1444894677418865
H 0.5327126807102306 0.22792908944890689 0.5681628963884611
H 2.9206093243492126 1.0669681797148705 -1.1740010093356381
H 0.8387192117056398 -1.9088644916331636 -0.6466429290802882
H 2.285058149746193 -3.059492503471238 -0.48281478652686954
H 4.462888042355013 -2.2710602753015654 -0.38320873017891705
H 4.629021862507215 -0.7284304516657285 0.43783033756638723
H 6.0430345671757255 0.18358645619169744 -3.4180712346178157