17

C 1.3015248726950839 -0.17674222133765058 -0.7003090379557267
C 2.268896774274188 -0.6562930241667979 0.05753214510595997
C 3.100451840324512 0.1541607391710266 1.0082923147745517
C 2.820838179576149 -0.2727518552685953 2.4271485961239665
C 3.7232962162574665 -0.5655004880345745 3.349215682510427
C 4.556171719786775 0.04753890427750533 0.6421735259984258
C 5.337327178627289 1.0662307903158106 0.3328204359363526
H 0.7247853262811391 -0.8111307570559678 -1.3607471267937716
H 1.049304825530017 0.8786542299334407 -0.7071510980693325
H 2.4902097693400713 -1.7231722901878397 0.032762525983572585
H 2.796145863346123 1.2062839642089418 0.9016592557801748
H 1.7609434034265452 -0.3283508534979456 2.672547310567389
H 4.7912164697797985 -0.512180181712517 3.1462714939302767
H 3.424158775601798 -0.8604489832693776 4.351414678222753
H 4.96313484482363 -0.9614659185012298 0.6264645776148039
H 4.973528032535743 2.086041756226519 0.33119614860154917
H 6.372610811758523 0.9176512847738718 0.055420072758521635