13

C 1.3703097402184068 -1.0504889911989699 -0.27322796324110177
C 2.2128010477527806 -0.07635597737059252 0.035034354345919505
C 2.980390957921351 0.7314004840926426 -0.9970023929508278
C 2.6140897342386866 2.142803643624189 -0.9347210651313691
C 2.2898532522244963 3.2975800349288793 -0.8683176951705721
C 4.420016980334816 0.5502880931158564 -0.827269396877847
C 5.596764207397694 0.3760577471617772 -0.67536865474635
H 0.8368709141027845 -1.5987134437429373 0.4896423361743157
H 1.186573795361666 -1.3232274751311257 -1.3073268661843014
H 2.3937957170357342 0.20275144434546713 1.0627623753397306
H 2.7057641096251164 0.3558760095221891 -1.992436030511124
H 2.0081580130194268 4.32020420844882 -0.8141258653864042
H 6.643634065880404 0.22626422703671675 -0.5362526673330327