15

C 1.3232869143105561 0.7475874989263733 -0.8146817176695241
C 2.2417762471979295 0.27588392554266905 0.019846271856723597
C 3.1485498781866443 -0.8836333908593066 -0.2826041895506189
C 4.579372099456641 -0.4815765447267002 -0.2743388557136855
C 5.504657064412878 -0.979593981019638 0.5596360356687947
C 6.862661470085123 -0.5963038115572645 0.5665551905244885
C 8.02855448534223 -0.288763891200988 0.5943872488516347
H 0.6910245329167801 1.5952648807108585 -0.5462158755386981
H 1.1603191521657628 0.31040598862392155 -1.797568835310559
H 2.3782498380410475 0.7530436379803138 0.98605456560426
H 2.8814321846942206 -1.2943199653965036 -1.2630464325180948
H 2.9909439644355524 -1.675262748416271 0.46619117357736584
H 4.8796357337483 0.2835512627669903 -0.9953989671081857
H 5.211626328630128 -1.7355873116540108 1.2830946652181208
H 9.061198416880755 -0.009006396505362484 0.612900918589495