17

C 2.1894666522588606 -1.3686079824732487 -2.5683469430929073
C 2.884346081470856 -0.6119662276911696 -1.71800370354471
C 3.468946974465295 -1.0849207452717256 -0.4227823726252376
C 4.894840404252465 -0.6544934386216769 -0.20717549991545672
C 5.187976335724406 0.31297743777969644 0.6695713177477856
C 5.965689320560417 -1.2892512808512862 -0.9603551304770774
C 5.826994278087511 -2.265014081458681 -1.8607489524066876
H 1.7620225361461777 -0.9624389023826507 -3.476818934290628
H 2.0144996855461925 -2.420283509629083 -2.371480779751653
H 3.0361563303574917 0.4371056760747339 -1.9511236709052862
H 3.384852383703395 -2.174080728064699 -0.36597304781213086
H 2.868825339345819 -0.6741255622683217 0.39523540361146714
H 4.420921331780133 0.8040832631864577 1.259483880574488
H 6.211664065871691 0.6336559323173044 0.8212264964030641
H 6.96076384280434 -0.9149652117703795 -0.7472935581735316
H 4.850362820311332 -2.672480494744779 -2.1223869049113597
H 6.685835954511504 -2.686858981377029 -2.3615843184181915