15

C 1.3318346218178585 -0.8662830640401055 -0.123952850862096
C 2.2670583688192973 0.06386639192984464 -0.0963084217465347
C 3.043908502003912 0.4414788841448207 1.1347161980491756
C 4.4834432892601965 0.3689885482563825 0.935848353230864
C 5.671673470862113 0.29994406391151945 0.7555847069353809
C 7.069958554894913 0.25207741001554995 0.5192157433148036
C 7.895220760576888 -0.6593953795906733 1.0296594874005423
H 0.7902150063355096 -1.0963779075388338 -1.0378820877352481
H 1.0749557970400574 -1.4446595338780648 0.7603654141972579
H 2.511874106965185 0.6205993011766414 -0.9938600539603791
H 2.753034045149935 -0.20229624946116334 1.9683794008138165
H 2.782478781806626 1.4706646694748138 1.4267538106808912
H 7.469328245479785 1.0245708917469953 -0.12271736064678128
H 7.528444294605691 -1.4529572994752111 1.678687972408974
H 8.955176661201447 -0.6365693511482412 0.8168140052478308