19

C 1.5389253314208464 -0.9302906647773866 -0.5702088259839933
C 2.4187852357407373 -0.17681981162598617 0.07207284438111804
C 3.0990799586934283 -0.5445174135232004 1.3436326160412757
C 4.624234347373833 -0.5955775887875577 1.2101703183380335
C 5.323543494259275 -0.9168343964136072 2.5296593708939676
C 6.8136116890550635 -0.9135720688462371 2.408339726623523
C 7.597443653625839 -1.9493057884557834 2.6522697947678786
H 1.0764643842988566 -0.5989031567024803 -1.4906357651329392
H 1.2411358781916049 -1.9019159624138844 -0.18273317158478972
H 2.6903219208861606 0.793418647615813 -0.35214977780071743
H 2.729581348292633 -1.504674455629264 1.7052308517050818
H 2.847027910532764 0.19683575678786666 2.12276897421112
H 4.988385967343935 0.3724401128154708 0.8238105293589879
H 4.89487625378356 -1.3444012209063485 0.4576694577758986
H 4.988944987320947 -1.8896033240881236 2.901874179165785
H 5.019042592379194 -0.17080654653580032 3.2703078564179453
H 7.25943350940206 0.028728154289434264 2.0774328843860164
H 7.196477410381755 -2.903311654928056 2.9814385684186417
H 8.674431176121054 -1.8859722782143564 2.534778962821482