17

C 1.343865603658722 0.3888680835309068 -1.2408062007180092
C 2.193558342831247 -0.1006650530284568 -0.35343871853339637
C 3.0136106345696576 -1.3373429249558606 -0.5361004127803541
C 4.510378479669796 -1.0690295508068344 -0.47374086508155283
C 5.339947706738274 -2.348360158341655 -0.6118924341690272
C 6.772290784238822 -2.114695892310453 -0.5593482641341646
C 7.9498038676598926 -1.9029270321438734 -0.5017355739206247
H 0.7761899711341425 1.2935383937082423 -1.0520255402334813
H 1.1666615561528395 -0.11287607453078247 -2.1941803857872006
H 2.342315397256977 0.4315842406094106 0.5820081639171866
H 2.753665765341196 -1.8072806342960288 -1.4966110354320241
H 2.7495434964809364 -2.0624988186964734 0.2460335303639277
H 4.763565048061905 -0.5833524125210153 0.46739396932871263
H 4.790805084621049 -0.36875252302316647 -1.2663443984654716
H 5.096161133783921 -2.834661811840385 -1.5658303486704928
H 5.057446204022965 -3.049277441517638 0.1756308563939771
H 8.99282708735126 -1.717812773102176 -0.4547053609553909