15

C 0.9936337323221159 -0.008459018081257317 -0.13201970993733175
C 2.1972467666004674 -0.024223145874700886 -0.10433895017452699
C 3.650780312278564 -0.05727101220084625 -0.0454640549052078
C 4.175491606816591 -0.7808767138094179 1.1908420707402765
C 5.710980534488625 -0.7938301328504305 1.211244110705287
C 6.250131755715403 -1.4696054237039655 2.3757000259110144
C 6.684930262732921 -2.038151909438616 3.338734325333273
H -0.07068111875489282 0.008105907253741116 -0.16610835442673927
H 4.026557556146718 0.9725886357466084 -0.07217210580757374
H 4.028126081237183 -0.5423311552700834 -0.9569154281640525
H 3.8061703795622077 -1.8104780147555113 1.2078839634237144
H 3.806833456432136 -0.28926207684491934 2.089669031872813
H 6.087484177966393 0.23916272756909676 1.1866972048502809
H 6.085347064806597 -1.2753778669583122 0.3037087933287928
H 7.063636479188454 -2.5383026800844672 4.1996607011794715