21

C 0.8921464618743957 -0.2614391552413603 0.12096881023997456
C 2.3644754200138354 -0.0853811636085471 0.2643458897880984
C 3.0304544940565257 0.8009471319745939 1.005696729604115
C 2.376570502356792 1.8238820871380572 1.874242648048119
C 4.549912338629032 0.7858399268860498 0.9959676220042587
C 5.134044571958491 2.090512277707828 0.45312428404438804
C 5.140261524822339 0.4648676056451584 2.3670247433022906
H 0.5792927574076412 -0.13597339754376497 -0.9231999140832348
H 0.3164684380307775 0.44833363235563567 0.7191468466307774
H 0.5863687859483008 -1.2672290237159929 0.410879409363009
H 2.9634787577024264 -0.7834323292786951 -0.3243467970923822
H 1.2905968519248336 1.7697440270172136 1.8384638028255893
H 2.6649434873729447 2.8313645076299627 1.586245444849549
H 2.6754421526211893 1.699810065890215 2.9261886101585715
H 4.8474827054038565 -0.020894464699788555 0.31661554062566993
H 4.928782934418736 2.9365225403913295 1.1183591856426773
H 4.720507195673257 2.329180707038869 -0.5352653441702336
H 6.220031693589826 2.011407772277015 0.3556452062962269
H 4.929950227463886 1.2650041202327211 3.0878324485362167
H 6.218935361253075 0.3643927312180559 2.2981572184375323
H 4.7276808407679 -0.46354409540698166 2.765625158384804