19

C 0.98237943749553 0.13211106917150442 -0.24005249842492968
C 2.4542394279148865 0.3430429304553651 -0.17910335995793242
C 3.1670298500189777 0.9511096500655423 0.7781347485217669
C 2.5450520385272046 1.554985364474756 2.007868763926639
C 4.632494716179225 1.0597068244857575 0.6552616568985564
C 5.30174824940789 0.468403556762071 -0.5490173969071365
C 5.3773983650896975 1.6568073684882436 1.5882373716059355
H 0.7431307815606625 -0.9361293596203706 -0.3070968701364314
H 0.5620521501130898 0.5852655546647111 -1.1526986616862314
H 0.4390097021910992 0.532917989418192 0.6064969620190562
H 2.9935832522771126 -0.06913847014871637 -1.026271656837511
H 1.4654579955392717 1.4349764050284801 2.0211578043092273
H 2.7595138335258333 2.626061518080683 2.068146770950925
H 2.936999890361445 1.0892749976844398 2.9146274743833867
H 4.942325711654916 0.9279301943150299 -1.4795705891838205
H 5.127159159988164 -0.6083472835506116 -0.6304986046061734
H 6.387077742508406 0.6278248335769689 -0.49536171637182574
H 4.951009997905269 2.1016309751803295 2.4775757985274653
H 6.453079119675322 1.7244072198978317 1.478635103132638