13

C 1.0065637754039183 -0.030768993609209833 0.054078684945790705
C 2.493109316647457 0.03583618341355857 -0.01438480994548463
C 3.174250828961744 0.8554542275961508 -0.8437022200885052
C 2.4993068471965993 1.7343835738475932 -1.7362439678703376
C 1.9282263717628803 2.4735137564640834 -2.4907593766762064
C 4.598407215800545 0.8749987280312538 -0.8642773208425424
C 5.806340854503372 0.8980559620571772 -0.888107425481907
H 0.67931178263904 -0.7621199924179546 0.7972369103559477
H 0.5851895075134356 -0.31009373674017826 -0.9171933150738844
H 0.5842705884647929 0.9373526002766122 0.3130479264605265
H 3.0785600548246923 -0.6038782126726308 0.6313406108267866
H 1.4158262284023058 3.131640530863738 -3.1517891405370326
H 6.866294439582587 0.922477363068649 -0.9095358249351168