17

C 0.6938788929931934 1.9450280204194585 -0.3438739015408697
C 2.051859980909752 1.3630558239560404 -0.4593388025842925
C 3.2013499836198167 2.034281830568266 -0.26885168929574027
C 4.509392006334391 1.446899554055608 -0.38419062629566825
C 5.657805109453976 2.111784117149018 -0.19389447342535038
C 6.969626748954722 1.516608380135177 -0.3163229582285399
C 8.110486820369049 2.1737549190077456 -0.12471380750490021
H 0.0991034823117934 1.433914036486836 0.42469411064247586
H 0.13493053268473418 1.8467508039869027 -1.2789448235108483
H 0.7280623246532042 3.0106419723532283 -0.08283286402879633
H 2.1134452052680817 0.30445392039750524 -0.7162721485603106
H 3.155178111729005 3.0929787477776953 -0.008683446102103786
H 4.555441380273764 0.38614106314824737 -0.6343809469226961
H 5.618632340638464 3.1750575921200683 0.05776566718671763
H 6.996008680926392 0.4586278924956325 -0.5714483166924668
H 8.133597963670363 3.2222978810126515 0.1323155283688467
H 9.076555249867262 1.6790344747888009 -0.22334946560772323