15

C 0.8075495352228926 -0.16811355731340782 -0.17260880281036114
C 2.286192650735897 -0.22888858035832346 -0.21178932380635165
C 3.0990732546530895 0.8299739688272796 -0.33101365552016265
C 4.5334377947509275 0.7397951508426509 -0.36133229129074296
C 5.349120794789978 1.796295553795456 -0.4775232571522354
C 6.758941128482558 1.7148026424872513 -0.5123476068527171
C 7.958943244742082 1.6765861634916654 -0.5361023374278326
H 0.41159564643313595 -0.600561457430136 0.752884442709454
H 0.3661342241126904 -0.7614844049820444 -0.9947764599158447
H 0.4408776714183976 0.8542569272810802 -0.26031228605377493
H 2.73957269444168 -1.2187831603239054 -0.13251568252758492
H 2.6626400000805233 1.8262361190969674 -0.41059012155246805
H 4.975964885785411 -0.2574432003525869 -0.2826061003390424
H 4.9164906692682555 2.7989891587282334 -0.5636319299259759
H 9.021649771957787 1.6333005679879022 -0.5675704821213559