15

C 0.8257189631848164 -0.323483319353138 0.024608658617398003
C 2.2841295320206423 -0.5204296872169575 -0.19462160315939897
C 3.061279680541081 0.2880941628771145 -0.9026439672138041
C 4.500122975519775 0.09982955400923839 -1.1191192417781342
C 5.214313258639258 0.9703618399379472 -1.848509607513075
C 5.1338217402200135 -1.0360843946855771 -0.544793078864639
C 5.656475553371197 -2.0006177041991147 -0.04529506014431796
H 0.5963139459007859 -0.24437484900470505 1.0908821922574585
H 0.2527668409202692 -1.178166197601289 -0.35321183384430166
H 0.46438078474739863 0.5783808042203096 -0.46704703327960917
H 2.735159146211366 -1.4055761428704385 0.2675039448364097
H 2.6392617055620744 1.1751579146953148 -1.3702746225837807
H 4.738738410129476 1.8428706124316068 -2.290762451579753
H 6.277454194694719 0.8316485862470467 -2.0081387188219533
H 6.123017409445902 -2.850902388998096 0.3899560562383725