21

C 0.9007358099575948 1.7284733330817956 -0.9267199253686873
C 2.3840531730777696 1.782528746781364 -1.1285801038892955
C 3.242018068637524 0.9389443517728958 -0.579819580001848
C 4.748145318419494 0.9204056501819834 -0.7228119493534871
C 5.364838579693983 1.0579556810136779 0.6619232429197985
C 5.152771874096951 -0.4386762598204467 -1.310957390580826
C 5.260964296034761 2.035740728216001 -1.627518719584204
H 0.5357829062991639 2.65920511233464 -0.4855225310527619
H 0.6172476021144654 0.902198846641222 -0.2685486036887262
H 0.37662739795667566 1.608008358900658 -1.878717922775236
H 2.7482553642051695 2.57679626862125 -1.7717808973650677
H 2.8542015350525807 0.14389277943774556 0.06364096547016802
H 5.016465462132419 0.27414010643329995 1.339984496698908
H 5.112658589262475 2.0261226021136687 1.1134285408884192
H 6.452691072538251 0.992412880367779 0.6091844242737235
H 4.793350702930026 -1.2647214336844441 -0.685442423735506
H 6.247552595943432 -0.5148868025094473 -1.3792502141440512
H 4.739438778260697 -0.5666109743096394 -2.3208059307359603
H 4.999065209776884 3.0191058371803985 -1.2315108693170038
H 4.845480469177933 1.9509515487272642 -2.6329851355251264
H 6.345750243707024 1.9807858290649138 -1.7058794428010489