17

C 0.7676818632116933 0.2468107391270008 0.7704121393310157
C 2.2482558684139677 0.17366793316915033 0.905422675915725
C 3.093399657918377 1.1154155690076315 0.5342286126105056
C 4.597002539957673 1.0212979471478758 0.6593737627545815
C 5.270005095223729 1.0320490278709036 -0.7160929783508807
C 5.112175587964368 2.102695834371424 1.4989200397517557
C 5.535596415062814 2.9992406622909824 2.166453981413898
H 0.3875850326344369 -0.5774168193135184 0.15282407972755624
H 0.4517318034765333 1.18971576356417 0.3098318950466887
H 0.28208989996192474 0.15526113322028745 1.740375207423351
H 2.6489171599080765 -0.7409106808131511 1.356323970511054
H 2.721351956919017 2.042440471200733 0.09211142990351555
H 4.8332586764117105 0.0703866464568725 1.1497831719930418
H 5.035907686904689 1.958410954247161 -1.2568647326501892
H 4.918479447360846 0.18482048656994804 -1.3166172562793617
H 6.355594658312592 0.9625371777492178 -0.61957329042822
H 5.909951988255444 3.789885701478808 2.7667683657397792