19

C 0.7684168861806424 -1.4557357694390383 -0.13015860127568998
C 2.2614315738472905 -1.4109958139181784 -0.2093206211575419
C 2.955130016326724 -0.7049728312802744 -1.0916982871094518
C 4.452847418209514 -0.6767901536751768 -1.1731535554068233
C 4.968266833933411 -1.202511539817437 -2.484740555590748
C 5.661597661824742 -0.5083062413005158 -3.3694798344469596
C 6.16563133560793 -1.0287081738051982 -4.675881176763919
H 0.40157559191556513 -2.476920338305658 -0.24120344990464543
H 0.31149167657820426 -0.8365474574543493 -0.9023958655326213
H 0.4138262641755881 -1.0979750638928443 0.840968245734414
H 2.800522256380571 -1.9940869314931586 0.5364502855332964
H 2.4301364935577707 -0.1179655459993432 -1.8472670105961695
H 4.870601283984013 -1.2574841655992377 -0.3446760277616788
H 4.804014213466175 0.3515095403048674 -1.0514061226367486
H 4.712111723079088 -2.2412259263446215 -2.7052398961147115
H 5.89908266055122 0.5291048882457232 -3.1379279244240648
H 5.8804671547424885 -2.075632870068779 -4.816115403364663
H 7.256603612118105 -0.9603044575780294 -4.732316899379401
H 5.771398291264249 -0.44989792514296684 -5.513554166225448