21

C 1.0370065643731914 0.3863322976031975 -0.296753570698375
C 2.4860026979379164 0.23812166802710266 -0.6056249257548584
C 3.1743366709215315 -0.8961867106594786 -0.5573651337581149
C 4.624147355399198 -1.0484123680818882 -0.8623663047798399
C 4.925167332291417 -2.0410516266408734 -1.9943478965604522
C 4.359255560049998 -1.5669085568054408 -3.3199838054460407
C 6.424271514203098 -2.2988370240991944 -2.0874812631762136
H 0.8857168422914447 1.0806673771100948 0.5316118600956917
H 0.5876208738119376 -0.5693828941300871 -0.01423445969816454
H 0.48364253908336086 0.7771465368164082 -1.152958490639183
H 3.0103236898466332 1.1452745119281804 -0.9024519374724033
H 2.649856876317318 -1.8104045517020249 -0.2642663802285933
H 5.146969025247259 -1.4038546618898862 0.046266003865357
H 5.054543983501037 -0.07567529624056796 -1.1101315722108174
H 4.436641206526347 -2.9938303655757035 -1.7348447332090697
H 4.836874820929114 -0.6327305050009978 -3.621414220293309
H 3.286014069805507 -1.3851719679078403 -3.2556369188706547
H 4.545020084575367 -2.3050620565419377 -4.114438542142949
H 6.9564320053720445 -1.3790059748581482 -2.3360478471962884
H 6.651220012603114 -3.022745951539323 -2.87854970825397
H 6.834455091998596 -2.6837906410565817 -1.1545840552731927