19

C 0.6497733832813021 1.3351775380189284 -0.6752322099699759
C 2.114644996812756 1.3635790114895723 -0.36919802984846667
C 2.648352793034895 1.7165442273138733 0.797419119879686
C 4.1092999403551405 1.736816949229702 1.112990991182129
C 4.61218588621478 3.103828548862415 1.4997738052084595
C 4.58133883808794 4.140943265101078 0.43060087490757526
C 5.046959180606429 3.3518803104002575 2.7271994476259804
H 0.41045867809711273 1.9933240973104407 -1.5192068302518535
H 0.06452754805568066 1.6533568014589586 0.1834105281956001
H 0.3274431471345938 0.3260006463269362 -0.9563218040132904
H 2.7813592315139934 1.0521403891257723 -1.173697137863854
H 1.9835288395490651 2.0246535609832006 1.6077549553733679
H 4.668333513955461 1.380254436791166 0.2322155493185659
H 4.315135028161473 1.0322640886501793 1.9246961147610167
H 5.220844289441991 3.8441893645347807 -0.4155714207386856
H 4.935268803797785 5.1046046042835185 0.8023919275409611
H 3.5740110473866484 4.2660303009455 0.024901673736435884
H 5.0557302123692995 2.5843436947457454 3.4945596404677297
H 5.3977939220326405 4.338328018719671 3.014623544567666