19

C 0.4015436828170995 0.8700255852056927 -1.1583913055490682
C 1.875413282347424 0.9435772637165293 -0.967040579221989
C 2.7579213310040047 0.14679402170884245 -1.5474300833918035
C 4.244277838202543 0.22351288607040395 -1.3707373843173116
C 4.989835356366461 0.486300477875483 -2.6778858678424267
C 6.465989041325747 0.5645346219659231 -2.4946202533922275
C 7.351742273143144 -0.23819343197151888 -3.079956914239922
H -0.10959049947372881 0.694283668828098 -0.19915839837711785
H 0.1246830632579757 0.05869901210032422 -1.8409881649782514
H 0.0022224894600164696 1.8019421933585236 -1.5557759832377331
H 2.2431329928463923 1.7205404468431662 -0.30597390766954485
H 2.4047944900062816 -0.6373800461693093 -2.2132303381237057
H 4.6174804061748755 -0.7178928302587806 -0.939764512430697
H 4.482051047366494 1.0092991289975108 -0.6387510474276911
H 4.614595894130946 1.4274632171515191 -3.1039905272871904
H 4.73985599181082 -0.3046107503332137 -3.4078181261297606
H 6.825584573796095 1.338424511772556 -1.822367771707248
H 7.04343496942354 -1.0257364159620237 -3.757292884130559
H 8.419479060067092 -0.13605957928912715 -2.8944742264427017