17

C 1.0672660492182449 1.9216473714964797 0.6422368635588045
C 2.485250940485645 1.5136190144158785 0.4192814459448265
C 3.042606885212108 1.3080365523863986 -0.7671671705543397
C 4.456238117123907 0.90359608740326 -0.9931555669283607
C 5.240130440742732 1.9365456206391187 -1.8176625382607696
C 6.609681036403736 1.5362692319374538 -2.0788590580659765
C 7.737915471190734 1.1935749459462104 -2.284702384755567
H 1.0069601256720258 2.8683024592763244 1.1896933819355249
H 0.5384672412108399 1.1752175035463566 1.249172994563711
H 0.53236346883313 2.0413553807005487 -0.3026157635427691
H 3.0936906953763867 1.3845303490066407 1.3024670776088172
H 2.435991711453926 1.4413530115299689 -1.6660248630976044
H 4.495160696922891 -0.054347394682430536 -1.5282120665790044
H 4.963490597040896 0.74656375354589 -0.0335847477636988
H 5.233114101244 2.8937650999496007 -1.2892597570115913
H 4.719692871417131 2.1138940803824435 -2.7660883990253198
H 8.73694884719131 0.8816283083106299 -2.4708125143835056