17

C 2.4728836154781626 1.5709427092022163 -0.035073361982291364
C 2.1771307005345415 0.10738724446104746 -0.06977327390320989
C 1.3504305067531224 -0.4787591977256778 0.7874557404242689
C 2.8401606505723156 -0.6830041056838538 -1.14278507316852
C 2.1290036274292605 -1.1740095543778477 -2.1602418338821527
C 4.2882729796965435 -0.9123861703066924 -1.0730800987058804
C 5.051781889093736 -0.6675957053460461 -0.012133402785270498
H 1.992992120477059 2.057464098277225 0.8177715705902115
H 2.117694761229704 2.047051492180925 -0.9539218522611533
H 3.548597294998106 1.7648633500866684 0.01871909140396017
H 0.8511172507627244 0.09352459569529457 1.5688503670136966
H 1.140269499946065 -1.5360399823865791 0.7537608361569957
H 1.0637480205718817 -1.024561625721698 -2.232099724530193
H 2.6067369822667383 -1.743804264878695 -2.950344643774872
H 4.724340841897506 -1.3468180301570674 -1.9569000267728722
H 4.647323467733603 -0.25577276042354585 0.907104541780859
H 6.114909304880117 -0.8883017121144738 -0.03282272910793951