15

C 1.19213110240867 -0.48337550092706866 0.32279646749107027
C 2.4920147903740606 0.06558414664666272 -0.17456325110699342
C 3.0290724390836297 -0.36450072823466523 -1.3185627160554847
C 3.1675399907959636 1.085857675617179 0.6442062305719114
C 2.6688477331490605 1.5414352891548886 1.8049494230258458
C 4.415518341712239 1.6102659964234722 0.1791702176340474
C 5.462482920717722 2.0556349033087993 -0.21110151196976215
H 0.7952430728982969 -1.2285781515067835 -0.3743023268578541
H 0.44446194622507984 0.31525915085917594 0.4301302922197931
H 1.3034470413721835 -0.9526769082225781 1.2990895649673877
H 2.5259386955176333 -1.1135091143262779 -1.9279032277515082
H 3.973008262690813 0.027593233541282902 -1.6786803352113544
H 1.7298171817444954 1.168950234714174 2.193026404271157
H 3.195001249625251 2.291317297590655 2.376779744248228
H 6.386270247455852 2.4503851365056817 -0.5503932678429753