15

C 1.0662080482542884 -0.35758204508675207 0.15157292890601526
C 2.5264643336803982 -0.046522737403351284 -0.07288825316382641
C 3.19845298374623 0.9848645143153648 0.47384090397759787
C 2.669527736898874 2.001086010516439 1.3572109970956052
C 3.3995079101824355 2.997530549983289 1.8501677016460158
C 3.213541907322501 -0.9518490611614843 -0.9253840826527509
C 3.752801265856024 -1.7374432854966977 -1.6602237427127897
H 0.591115762168528 0.35747449438622264 0.8130876620424264
H 0.9559790390144729 -1.3511680802526491 0.57699865544677
H 0.5358032129919194 -0.35875631594160934 -0.8086082301289096
H 4.248190404830911 1.0791557954194777 0.22008540790671777
H 1.616524367788937 1.9341193759825348 1.6343007996899253
H 4.451223243073193 3.0957748519454347 1.605181190677532
H 2.978982090066244 3.7327894375411868 2.519588309341586
H 4.250402191927086 -2.4282086769207054 -2.2962631056030207