13

C 0.9972167841884815 0.20579157949543547 -0.048716570288666404
C 2.4866962408958573 0.0772560372826951 0.04432707066786584
C 3.110484185488473 -0.8437478485910631 0.8012639452810678
C 2.453152017486239 -1.8154663029790263 1.5817323994207766
C 1.930516568742955 -2.661108710321264 2.2716292136711704
C 3.2493253742219568 1.0057834999765123 -0.7067442493466923
C 3.8597723944073423 1.816070813165336 -1.3554373292222563
H 0.4969830197073638 -0.5488020828259549 0.5665079897831979
H 0.6770733852930537 0.08421341599206657 -1.0918205695145415
H 0.6680696186058193 1.1978166650028599 0.2758984022840858
H 4.190562210211042 -0.8620116731634216 0.8115977369465276
H 1.4625793393848132 -3.4069201239884483 2.8697590068759125
H 4.413647100056767 2.5264009846709885 -1.9279318578842926