17

C 1.1151995062977447 -0.13747522590852146 0.01813642455451323
C 2.5785101430716595 0.18829611019878387 0.07199963354256005
C 3.0121359028701757 1.2156335122070991 1.022197067442159
C 2.202866081085899 1.8864823327049955 1.836007035773886
C 3.448907832959286 -0.4619794592502546 -0.7319791137901477
C 4.879076700714167 -0.29071194687672464 -0.8189339682959254
C 5.6444470301578 -0.9911009055981017 -1.6564341615222486
H 0.7504408544671052 -0.4816434211253197 0.9858240532226714
H 0.9209081553450008 -0.9135038689917039 -0.7174802385287726
H 0.5315277924673266 0.7511487517102914 -0.24831134247709769
H 4.069893445483198 1.4402935202853377 1.0497399560287028
H 1.1361139091838093 1.7274208706422969 1.865659785539753
H 2.598892500534831 2.639423356468453 2.5168027214162927
H 3.031518397984625 -1.2097655375338274 -1.4029907419728034
H 5.351841733412002 0.4393312877553063 -0.1785851668398173
H 5.223298658277975 -1.7307780360368108 -2.3228167849960646
H 6.71379642881369 -0.8366215306558891 -1.7094094069317842