15

C 0.9042396519434188 0.20005652201327015 0.22993507393094814
C 2.3893066765030224 0.28962650732608525 0.16175647709312452
C 2.998304436282892 1.3476747511279108 -0.6336879574293737
C 2.3212396927410226 2.271196618609721 -1.323718015064552
C 3.1623312989295616 -0.5983075188754974 0.8218345726804976
C 4.570408438312297 -0.611436005063383 0.8368523486166509
C 5.779591943801586 -0.6662912953779064 0.8737552866323632
H 0.4716947876335502 0.06280161445344337 -0.7650394824590381
H 0.4707992288958431 1.1127746630147952 0.6394708315253798
H 0.5897701113223915 -0.6423536501063889 0.85615892142993
H 4.08727825946814 1.3674380078584705 -0.64213775185232
H 1.2397497442401397 2.3029771363875096 -1.3412384893080438
H 2.84157890586807 3.029222033910582 -1.8963759304376748
H 2.6732451706906772 -1.3791310651272524 1.4009932010729167
H 6.837003629359054 -0.7050470536635257 0.8993032512344116