17

C 1.001941639296857 -0.06613630662565395 0.09601823501578481
C 2.5001027462021166 -0.07267243878015253 0.05948475748771619
C 3.2418939056376663 0.02645716231178636 1.3697236386290537
C 3.186975452667515 -0.14996400518272993 -1.102261969764632
C 2.5485576778750647 -0.25512692704143236 -2.45099593986994
C 4.609556318515697 -0.14931802651399984 -1.0919552794572531
C 5.806041924564082 -0.14983469688342713 -1.1226098734740422
H 0.6362394929712918 0.004053748325444906 1.115040946130914
H 0.5801826506883967 -0.9751807801690223 -0.3389432510624089
H 0.5809190218194621 0.7760574872120319 -0.4688699302863395
H 2.5446173166775607 0.09033728719303771 2.213881975013731
H 3.8894358513214624 0.9034256654429997 1.3993965784641955
H 3.892061567087769 -0.8386504366310441 1.5219694807674995
H 1.4534831452199948 -0.2465417679548136 -2.395529807097049
H 2.8593254819828253 -1.167902708825789 -2.9605346450787464
H 2.857866094222005 0.5804332136842576 -3.09429136799439
H 6.875565161232258 -0.15681380068369183 -1.1471357402756148