19

C 0.7104446614040788 -0.30420951528703105 0.25245890897868384
C 2.0920466143299836 0.0501042980670087 -0.19427647591107344
C 2.1974780726075798 0.7110802710861107 -1.541351654478041
C 3.1537191568538128 -0.21653574487301713 0.5699338455119168
C 4.581442484184925 0.09517322766008876 0.2523198525289252
C 5.2074102331334 0.9952808768488549 1.2686602569178689
C 6.239680909220664 0.6924000350022925 2.0352983181972983
H 0.07546326150056672 0.5888975637165703 0.2988502095428731
H 0.7084011429684022 -0.7802921067942709 1.233109971224083
H 0.22952835709934483 -0.9865414587912216 -0.4596928218887237
H 1.20382464117285 0.8636152578901256 -1.9808563472418648
H 2.768416630525848 0.09206270547990977 -2.2520729306044402
H 2.695889922006026 1.681471577374708 -1.4899042486948373
H 2.9882569065876248 -0.6906050647194225 1.5437190955912878
H 4.656762315067512 0.5536466031468361 -0.7345638516103559
H 5.165307654328339 -0.836426036811933 0.2123126463609574
H 4.732793201857377 1.9735542619893358 1.3827886332373196
H 6.73363552416726 -0.28098027397155 1.9605756459572696
H 6.642680908964361 1.3888752567552556 2.7621465703722325