17

C 0.8112522607531909 -0.04579411390605392 -0.11664338114776843
C 2.296861445057219 0.09983417680800782 0.007147908693488644
C 2.7440529855389197 1.3936383115590725 0.621316580181439
C 3.1137291535546856 -0.8705493448354664 -0.4137549095186459
C 4.619124181354117 -0.8783358488466588 -0.37030711508041403
C 5.1444147507288 -2.0579745507295817 0.31481579562722845
C 5.559992164488786 -3.0251227751158503 0.8717444255657054
H 0.3414381936146166 0.01708401432448949 0.8654079786080939
H 0.5435220354239226 -0.9950604895301692 -0.5706988346423468
H 0.39570690924431556 0.7626921573285984 -0.7263438005885411
H 2.2901021174004965 1.517424982619535 1.6110235153300572
H 2.4104854044067245 2.2442349794315026 0.011176577422752415
H 3.823877022084097 1.4691994159249993 0.7408868323968614
H 2.660905851180519 -1.7577970612543468 -0.8331828920680079
H 5.016620254046804 0.01673499304010466 0.10657240265333501
H 5.001604655881128 -0.8833969549672004 -1.4027828239531341
H 5.943150346176429 -3.8898652149345883 1.3661975029586353