17

C 0.9127538094099172 -0.061821397221966 -0.1621182301153639
C 2.450538907461576 0.039232455736433344 -0.03687786945982022
C 3.087068118703565 -0.3261268379626754 -1.3885170859472595
C 2.817943554931139 1.462047129653303 0.30570103859738745
C 3.4703623754963857 1.8803790030325613 1.3759967176781824
C 2.9083491842803046 -0.8993287130638714 0.979394599647264
C 3.2823327259236312 -1.6878362757982368 1.7989229445418626
H 0.5564458042993231 0.6403920585869272 -0.9201960759115435
H 0.4376908169777677 0.18650240354225658 0.7961838583056089
H 0.6163154309018327 -1.0685730740472061 -0.4498020112682862
H 2.74959383380347 0.37845115212535174 -2.1651761629615933
H 2.7983512614557005 -1.3308340018778821 -1.687501528199861
H 4.173972548353014 -0.2760521391352074 -1.330768405075156
H 2.47931593328031 2.185569632783642 -0.4371226161176182
H 3.8231876574571193 1.1851576473311094 2.124689738546666
H 3.6902597600909375 2.939639621162989 1.5162089006879262
H 3.6133145505961375 -2.39352269153663 2.526195051090949