21

C 0.7328216457573405 0.13189018815912879 -0.04249581208394706
C 2.238771844588097 0.38989731645643383 -0.08658824951080349
C 2.6099988179532856 0.9628017654902944 -1.44995267220456
C 2.6094630348315113 1.3840383617918708 1.0028443720943756
C 2.954395772269672 -0.961884330908442 0.15497891590907828
C 4.446472771310372 -0.91787237375804 0.12446271395019104
C 5.231136014612825 -1.2199241684597308 1.1435361821828791
H 0.1825303915754793 1.0615098000377983 -0.19895321931632176
H 0.4346630675462523 -0.2811762739051285 0.9153353332212456
H 0.4322231735504194 -0.5660250850816937 -0.8268807082372657
H 2.0486297921863352 1.8789039104479004 -1.6476657875359375
H 2.3845066097223744 0.2458409856479585 -2.256680817557854
H 3.6717074542316053 1.2131942792587962 -1.5167772461752544
H 2.094942887370551 2.3355528951543776 0.8530263872222527
H 3.6859793046110774 1.58149599222616 1.0148241193226684
H 2.3356296324219645 1.004598061468745 1.9968908443804227
H 2.6015310792189053 -1.6616450185133633 -0.6080746397940929
H 2.6267055686217886 -1.3524509973285948 1.1231940473559032
H 4.902646185606908 -0.6382688955762107 -0.8226945736750355
H 4.82943950371167 -1.5085417573512696 2.1108125661896278
H 6.318987514209958 -1.1832965039394383 1.0629581871356608