19

C 0.8893990890327228 -0.19620670618914451 -0.06212739927945124
C 2.393289294733648 0.03970407120518751 -0.01642024048519871
C 2.8029626435833235 1.0310219325314351 -1.0992069436733765
C 2.782422283556836 0.5806653811661258 1.3543084182421066
C 3.0853457141329685 -1.3198894847600104 -0.2585677774444662
C 4.538082309747227 -1.2669762565045068 -0.24580420049980664
C 5.743422701252392 -1.232462424280703 -0.23315417513143044
H 0.3433404735949977 0.7418922917291454 0.10178982446155654
H 0.5686708960569071 -0.8993765694040342 0.7049913352073535
H 0.5860266351342471 -0.5832878993735691 -1.0366297116650351
H 2.3052464311986895 1.9932145858182553 -0.9456723694106882
H 2.5096363517451814 0.670095071598476 -2.0961613582304692
H 3.875112968617092 1.1964434299961946 -1.0946945304925766
H 2.2955052029428344 1.5375652712141448 1.549295886446024
H 3.870083997021285 0.7432113466432735 1.4286067398338218
H 2.4897947276022903 -0.10710846172484405 2.1540810554439154
H 2.756243574005942 -1.7130990033958409 -1.2230713853548665
H 2.756344337345635 -2.0343025209587333 0.502894654720701
H 6.802330282999998 -1.2033103557954683 -0.21600390897105545