19

C 0.7588053836531752 0.05310628660347559 0.21626591014211036
C 2.271813683047221 -0.018774334097773168 0.06131594471681776
C 2.964557437480005 0.2311282909626603 1.3935399470828265
C 2.68468027600488 -1.328983855760226 -0.5089542706145062
C 3.3181140691074558 -1.5085636217888674 -1.6784421668541851
C 3.7068760926742934 -2.8044483795326944 -2.195557068221272
C 4.336344827698629 -2.9943790885002435 -3.3551060995426094
H 0.4567246658207457 1.02075956809509 0.6330729154558932
H 0.4049852633816122 -0.7204346283470038 0.9012545006006923
H 0.24952173183452234 -0.07654161921381666 -0.7363706494370847
H 2.581936367179781 0.7665219075294831 -0.6392885411863496
H 2.6943705285511834 -0.5405355300308071 2.121261422591093
H 2.671869338333905 1.19989642628581 1.820047771711107
H 4.058780893334105 0.21999342089631468 1.291748464794898
H 2.4360410014492895 -2.2075557802916794 0.08525567761439269
H 3.5699242089793066 -0.641110182579859 -2.2781550188003967
H 3.441823727295342 -3.67227257792318 -1.5918653559473477
H 4.611234203834841 -2.155622454541996 -3.99330730357797
H 4.599301955872786 -3.982490548229778 -3.7072621259768175