17

C 0.9741488488342636 -0.014621548376058233 -0.32016050953996483
C 2.4802500444025406 0.04424694656266416 -0.11181398030902891
C 3.2016236680943244 -0.9513181868127826 -1.020978694056316
C 3.0114109918993166 1.4425989401472359 -0.3085675828157834
C 3.6092839758449213 2.1346820573508354 0.6744971431535375
C 2.847068378506897 2.0241005580136506 -1.5940622583444157
C 2.6892857205869807 2.4846098007895088 -2.69789342401448
H 0.6009526185855313 -1.0250237595379557 -0.14603541123357186
H 0.7174993831873722 0.26974904448715625 -1.3472451365519198
H 0.4534569095140518 0.6633406810615855 0.3563692778523435
H 2.6921442339749415 -0.2274351309106508 0.9305424139128183
H 3.025182383338379 -0.7045131471029314 -2.070766226775682
H 2.826957980766866 -1.959120318289174 -0.8434572947109938
H 4.282178906399164 -0.937521643809743 -0.8457844721102035
H 3.7350461926787855 1.6929218716109014 1.660572803627455
H 3.97950244992244 3.1367695712011794 0.5144640240126448
H 2.5700758526519123 2.898306062535036 -3.6729047306336193