17

C 0.9043695475261861 -0.036823676657687925 0.029781747691949034
C 2.438873841060194 0.02119602978578737 0.04366226617447332
C 3.0087073596779867 0.07041673282228554 -1.3701506771775906
C 2.9139933849054818 1.1507837763477398 0.8361699695562578
C 3.294456645075795 2.079909941973141 1.4913958710695872
C 3.7752306992583473 3.1865423345264685 2.242180225941293
C 3.2455529724323964 3.622722987800405 3.3868997351759487
H 0.5649276504249604 -0.9118004770071666 -0.5316003798507892
H 0.49159836865475015 0.8572022262123525 -0.4391304553720549
H 0.5107100001535652 -0.09158730863637413 1.040194701124017
H 2.797825959857593 -0.8902291874990887 0.5231467832442859
H 2.6621339886947974 0.9639101787955576 -1.8960783949504558
H 2.6738149309455324 -0.8012099338505433 -1.9380821653538325
H 4.09881293420332 0.08252941543546803 -1.3581496793243135
H 4.631595571575384 3.7060184294837186 1.8272444146456177
H 2.3886334963137394 3.1356533768605446 3.838086034404404
H 3.6647374375900665 4.4820310614184065 3.8978880183576923