19

C 0.9921677578608317 -0.354522919968925 -0.09949279026936901
C 2.482545265005022 -0.026178295946281644 -0.16376301744105384
C 2.89886064096471 0.27844865150747333 -1.595076660959494
C 2.8104992352172373 1.1080346688558529 0.8012774980483489
C 4.30383300724868 1.3970801942204043 0.9420718152400597
C 4.598105265912959 2.412661489228641 1.9336666723233256
C 4.811278915495566 3.2543935385642775 2.7554398289799877
H 0.7408400685108252 -1.1927542645865434 -0.7621200563890438
H 0.39101375752859385 0.5071937680202647 -0.4206093111252573
H 0.6797007214392216 -0.6158847014667114 0.9122605385100488
H 3.0361578328883736 -0.9144863684405772 0.1638310611683772
H 2.396092870679615 1.1840506649473093 -1.9631860689771385
H 2.6338604458126986 -0.5390791875592125 -2.2669690332044508
H 3.969942802472604 0.43627615054032526 -1.6906711767893419
H 2.4059365718567998 0.8632040765785208 1.790155532234175
H 2.2962380631704966 2.018366974442025 0.4752716289294173
H 4.722881569545571 1.7148058897301488 -0.018395308214054506
H 4.829608831094798 0.474217767436802 1.216299464119897
H 5.006952585602024 4.0018951594419905 3.4911957669137412