17

C 0.9709711253550444 0.10392422755140922 -0.0940504016981638
C 2.41435817958069 0.10303860652434062 -0.034831417515794
C 3.617752698953797 0.1105451480475334 0.031200527933390145
C 5.036360000074559 0.12165131152918335 0.04698514427431971
C 5.810968388065304 0.05099841446208594 1.1361603835948577
C 5.248079722361544 -0.05617207224844231 2.5204109712628493
C 7.302405860229778 0.06494297941098459 1.0363017579772595
H 0.5403539258053263 0.8793342221709584 0.5449117951610507
H 0.563331323592264 -0.8616759307937248 0.23098565746797822
H 0.6219272168006763 0.2826911040176033 -1.1164435635487793
H 5.521958794064316 0.19144219337073232 -0.9301548380766769
H 4.15961132910616 -0.06446050609721535 2.5096432830008464
H 5.587580423730945 0.7872287179811943 3.1376928432252296
H 5.602546641491511 -0.9723883888056262 3.007065577204636
H 7.634924479617967 0.13930531112291475 0.000232136007126276
H 7.728719797964903 -0.8461277389051131 1.467300388339593
H 7.716952893250875 0.9112911809416343 1.599489366902788