13

C 0.9783788899841329 -0.01263019771786227 -0.1302516363224166
C 2.432295182825584 0.010181022515325166 -0.08760019194890346
C 3.634460368563987 0.04232017175891613 -0.055672744872393175
C 5.055885871771221 0.0500849386854792 -0.037488827950620716
C 5.7581359346078145 0.7955817024830317 0.8342240464120094
C 5.714269488766983 -0.7913093875154007 -0.9846046856931913
C 6.262937888311567 -1.4970798373711884 -1.7881468531237408
H 0.6290724761720068 -0.6662277810114191 -0.9299349866796224
H 0.5788975477380526 0.9885329517177897 -0.3079756784843553
H 0.5723036388182142 -0.3768446581365835 0.8104742419885925
H 5.253073119078595 1.430619185889159 1.5525862782673827
H 6.838797625591413 0.7877330740133474 0.8207620374925871
H 6.744039146732769 -2.121429629842567 -2.5082084250525805