19

C 0.968594088612363 0.09699132987434682 0.01728737725856054
C 2.4126419470298743 0.09967160862820991 0.015785358871185477
C 3.61985214256746 0.10121029702204433 0.0180752486908479
C 5.081416350220014 0.09899535277445769 0.017794589860077533
C 5.597960160939952 -1.174062085815769 0.6938849361274521
C 5.600068783326889 0.14955878993758806 -1.4328326570205236
C 5.60002681130335 1.3262266498967312 0.7772742367850792
H 0.5753161869827215 0.8901400647408375 0.6483498015844555
H 0.5746892948030973 -0.8485867752528423 0.38981104741266254
H 0.5734700323759996 0.2484361987950196 -0.9914561309214499
H 5.244040170162478 -2.0610487336866026 0.17244829547769158
H 5.238750080186838 -1.2328291816425263 1.7310964653743957
H 6.683012474769544 -1.1924942579419704 0.7038557642350042
H 5.245370547648941 -0.7174111942675665 -1.99109271654934
H 6.689515161645238 0.15056125165507153 -1.440660143088083
H 5.242501788477155 1.0430895334416983 -1.9333689388981679
H 5.247955440909789 1.3178395004869194 1.8083803677906694
H 5.245045479417366 2.247739189268029 0.31150841706649546
H 6.686884615111628 1.3386258254466983 0.785863879717184