15

C 0.971377248705005 -0.05586092889196778 -0.04966564891395913
C 2.4263385277201217 -0.0797771062838676 -0.04659392730147244
C 3.6242606298387456 -0.10660340461852509 -0.04200107450233584
C 5.089693749637694 -0.11819043823415241 -0.028259414535541906
C 5.654345090266224 0.8350853516406659 1.0325239135153597
C 5.610848350082551 -1.4791270719687233 0.16988023552991105
C 6.0642209732202 -2.5714046833920716 0.32918334970570473
H 0.5677879387823599 -0.9934200769925134 0.32791940356766425
H 0.59225657564719 0.09146646612559027 -1.0668521192745546
H 0.5976960238342406 0.7534739530343985 0.5727455573508656
H 5.4359075929948215 0.22305817759299962 -1.0092168932586403
H 5.329503225963042 0.5285654789510267 2.0334923224010697
H 5.282886299231451 1.8490314364403417 0.851218313828569
H 6.740487934909243 0.8362157409055236 1.0058218190110633
H 6.4596683798374475 -3.551989539105646 0.48093002480496244