13

C 0.9188577363283171 -0.07262987633392261 0.04823331075873232
C 2.3660865843775283 -0.06535362164783284 0.06700584082836289
C 3.5777926190464524 -0.05914532129305772 0.08669449859279448
C 4.934935577479009 -0.04508625551685099 0.09915210913537609
C 6.146534503025597 -0.035703314544334085 0.1256083069927322
C 7.555064903771543 -0.039793088784036576 0.10744230408381383
C 8.32473275686439 0.39723811042234425 1.1134406353373283
H 0.5138773433477523 0.7103849788351336 0.6988204206162931
H 0.534011880641847 -1.0356548543023825 0.3926175277296576
H 0.5415819202735386 0.1043086094984473 -0.9613997279113707
H 8.026396607373414 -0.44184800724528245 -0.796066442165832
H 7.897185412033979 0.7971568466962957 2.019753595399459
H 9.4077982311877 0.3628887937467777 1.0263410978852772