21

C 3.1370907479998236 -1.8535355945838883 0.611498506808342
C 4.008428438559173 -0.8536396961825969 -0.14010405706491327
C 3.9692435934157184 0.5133533398119214 0.4761067637317215
C 4.988450760385503 1.2366762202445076 0.9464275815204958
C 6.419609338975198 0.7919213083421496 0.9475115473215416
C 4.734196098929978 2.6008192595999233 1.5301705772351828
C 5.378207230790865 3.7453455453720235 0.7492181901080031
H 3.13558551971959 -2.8298765055417734 0.11693274529416531
H 2.1001589044842732 -1.5048000547500038 0.673927723365587
H 3.5008640611657587 -1.9897098320515116 1.633831791499255
H 3.638943919758565 -0.7763232183860815 -1.179503964539346
H 5.026861328100357 -1.2289284594589305 -0.21674450855386498
H 2.9802671096288043 0.9428697201190344 0.5464101105501915
H 6.537802003857045 -0.25089744371878947 0.6666864673108901
H 6.861601930367334 0.9328838633231051 1.940439310052852
H 7.0143299801932475 1.4018469571471706 0.25285557086428945
H 5.112125926662767 2.6166388855906533 2.568356043713073
H 3.653711282069101 2.7677918634936005 1.590515181885596
H 6.463790053780442 3.655060520740239 0.7319392398799678
H 5.137148908114423 4.7085169653715555 1.2090156237044776
H 5.019991765990773 3.7616674530223837 -0.2772906259671768