19

C 1.797039902574694 1.1916498987028104 0.4597894664046677
C 2.9590699277081423 0.3873809984556844 -0.12927125242510148
C 3.1144080693311653 -0.9432147329690571 0.5058787883513265
C 4.214732824845879 -1.3735639832292883 1.1285115045686696
C 4.341101547583612 -2.6803697552220385 1.7534705483526036
C 5.439951370251204 -3.1144605501016263 2.372914411893733
C 5.602594533867468 -4.440211141448133 3.015741459352345
H 1.682078231419315 2.151957636856797 -0.04635100082823332
H 1.9638703181177082 1.3914381966140776 1.528320643923117
H 0.85140374628581 0.6552036401329717 0.3704101160257407
H 3.8849828789956407 0.9535884042520393 -0.040258058335806535
H 2.776922214800571 0.26317838359963475 -1.2017957358237255
H 2.2493019299416863 -1.6110952075041756 0.45812101490396007
H 5.081798227576224 -0.7167717155427293 1.1851777248550268
H 3.473193281047708 -3.3309998159618757 1.6953455429654332
H 6.301338019735047 -2.4459292888047295 2.425216352732164
H 4.688711687604488 -5.039977120374234 2.919374799650091
H 5.830737749059567 -4.339669798549434 4.079703734112931
H 6.426913123344904 -5.008196521600377 2.5768593749361592