21

C 2.6850478074756197 -1.4374225857007634 0.4669891307666467
C 3.408087712321464 -0.10214158049229838 0.40698504424641346
C 3.2331177371190076 0.6042618452460092 -0.8935940384215151
C 4.219917020771177 0.9520070473852709 -1.7188873805150395
C 4.0510608752015305 1.6432933501830238 -3.0375894595583395
C 4.750335773163712 2.996807023521421 -3.02523120958911
C 4.564990819073238 0.7756158405146262 -4.178083048702116
H 2.7952825838773006 -1.9182907108406217 1.4335662928777897
H 3.061932093354567 -2.1169741072548973 -0.3026492390033789
H 1.6089466052243033 -1.3031130181402482 0.27738711231747626
H 4.476120596956147 -0.24830332160664453 0.6036850568689566
H 3.0304006460036828 0.5404370550023375 1.2142400961951787
H 2.2145277614127177 0.8371297112449172 -1.1852450839860027
H 5.248485098211438 0.7107963821512906 -1.4438790674507715
H 2.9764538805594474 1.815053488716739 -3.190642289488021
H 5.820858748356869 2.875323747606644 -2.8543040560394517
H 4.36352782701299 3.64538305459496 -2.2378805993692503
H 4.617969084268416 3.517359927140825 -3.9789313537626216
H 5.629325596909283 0.5627942345069854 -4.052342759398851
H 4.43725837606129 1.2793854380579501 -5.141809557644397
H 4.043769872261479 -0.18271296562886136 -4.218834076050494