17

C 1.9863497254187132 -1.7764807781765906 -0.1611922803988898
C 2.5420872824577896 -0.3661522095360137 -0.05815815332132514
C 3.0499910666422836 -0.04891572962793735 1.3101100688387441
C 4.302859768268576 0.3039162894926874 1.5933424960013904
C 4.787222035555097 0.5917195875982797 2.8880599444100095
C 5.2410543254857265 0.8525443716649093 3.986614589586305
C 5.769153620201429 1.1551005039089055 5.30148396361485
H 1.5839121985086206 -1.9635636633348552 -1.1649198887190204
H 1.172068935923415 -1.9349974019701575 0.5515221490847628
H 2.7554602452808794 -2.5230905772613568 0.038555701392849986
H 1.7528286428446407 0.34723668628511634 -0.3128651706864085
H 3.343213652880764 -0.215377793311087 -0.7853471846838999
H 2.331728806666377 -0.1283620890567194 2.1260037539493672
H 5.025733120332869 0.37298489680548097 0.7796076261507094
H 5.870975336374359 0.24324343481864094 5.897916268775738
H 5.109567121187217 1.8381864290312218 5.838498132038304
H 6.751255120440246 1.6190395747194417 5.22271838304109