17

C 1.7211360936526607 -1.4423869819393658 -0.23708948277621078
C 2.5014308286751277 -0.17688045710084999 0.13396271451444222
C 2.9140557781305154 0.6139155727722551 -1.0622596639254827
C 4.163784592199408 0.9069697282927562 -1.3987234071800716
C 4.548185690450173 1.710067612984159 -2.6073430355936713
C 5.483061407365686 1.000778215087758 -3.4762780154565975
C 6.256102244336513 0.41524779856210925 -4.1759743688477835
H 1.4084254988891745 -1.9881625458591297 0.6516482873022145
H 2.330620319494318 -2.1099270353696213 -0.8453522168750954
H 0.8304566799817232 -1.1948408666385772 -0.811024072160338
H 3.385813234774148 -0.44136126961240224 0.7124144919207533
H 1.8726927399672415 0.4494621091649086 0.7796081379434587
H 2.0991181000406995 0.959165702514648 -1.7132229808186652
H 4.983496636544679 0.5517758476066035 -0.7761258789721369
H 5.01380606358579 2.6514996585432655 -2.287053910760766
H 3.650648064966567 1.9716821580373576 -3.1777906411195196
H 6.944081291656977 -0.10766401347291073 -4.803520908924657