19

C 3.5948112177757015 -0.016856057336228674 1.2532991681711998
C 2.9708956603467085 -0.14825327674857952 -0.13648646595696443
C 3.324756428836534 0.9963475555471439 -1.0486630510170887
C 2.39090944832259 1.8192660352927914 -1.53062831315629
C 4.754435070887539 1.1833199314771887 -1.3978581789920075
C 5.5234003982595 -0.026481786396966602 -1.825840952095695
C 5.331255106656169 2.3814932685249577 -1.319643968902546
H 3.33193090152221 -0.8723089896931616 1.8770479879360118
H 3.2463991623012687 0.8835639595388024 1.7454635324706225
H 4.684787191120466 0.03071693832523392 1.1929495412721225
H 1.888939196244569 -0.20663350946085116 -0.05446029453800761
H 3.2984761239879052 -1.0822035007342923 -0.5948246407879461
H 1.3421344783024933 1.6890451334733547 -1.2723932139833034
H 2.6436517435384954 2.6198010348396235 -2.209777226953235
H 5.03110129643053 -0.518526645973528 -2.6759979640803198
H 5.582089982335298 -0.7676969386180003 -1.0253428404653548
H 6.537441162340919 0.23490501244394693 -2.127622931535396
H 4.783285661363952 3.2537762951829667 -0.9697829196180576
H 6.377656994668046 2.5263168932660958 -1.5932132656730007