17

C 3.000062415596451 1.1966996776072873 -0.472298779925121
C 2.413723793820314 -0.0615809312383764 0.15405177413769433
C 2.7953699719545275 -0.2642273754820465 1.5870979941076835
C 1.9039553156198556 -0.3112980248914343 2.5690455549152884
C 4.272398698506198 -0.38334861360935596 1.900508410970249
C 4.945681183029403 -1.4243355092182115 1.1325344907970472
C 5.499650168238577 -2.280212742844288 0.4901434772597192
H 2.64733059408407 1.3125197824502297 -1.5028884468195816
H 4.086519667568462 1.169307948099365 -0.5063984624358365
H 2.70465794297933 2.0915073261184647 0.08850910077032237
H 2.7471545765657397 -0.9295926260824202 -0.42280177503230865
H 1.320464921927411 -0.04272942540988949 0.08600989054062358
H 0.8399489995336474 -0.20441033723636803 2.368779639554311
H 2.1906771245348478 -0.4724516231999137 3.5957375728028875
H 4.4126965523614485 -0.5742292187649292 2.9615157747959295
H 4.767091125005563 0.5743210467402899 1.6864711393113703
H 5.987960273621736 -3.038558697046591 -0.0664086097149956