19

C 2.142164912913095 1.487901295430314 -0.3545729081044981
C 2.6140604964600618 0.047868911855589794 -0.2492557347113334
C 3.2107975930212747 -0.48397416097166923 -1.5223161539454126
C 2.3193599738116086 -0.8629809095862055 -2.60517022561419
C 0.9772967998277515 -0.8803699880549488 -2.5533816696034113
C 4.544066369948302 -0.5875342984532318 -1.636199788369499
C 5.363637738378451 -1.058809930614226 -2.7911942602312565
H 1.6935883522447424 1.8274722511271095 0.5835218595097118
H 1.3946537521233833 1.6166913132405147 -1.143462755690639
H 2.9736208652800804 2.150943636846702 -0.5788055062391596
H 1.7794353059839405 -0.593418580003956 0.06486410247247128
H 3.3693820624968382 -0.03182194186249418 0.5420634809271866
H 2.7846572288089644 -1.1612380882253663 -3.5376749111808885
H 0.4243176778577809 -0.6077181128780439 -1.6672193421859598
H 0.4007043933149256 -1.1966934479029496 -3.4147422438626602
H 5.129107468173528 -0.29757986446358153 -0.7588294648043022
H 4.763074974343399 -1.3255979993185067 -3.6640138066636396
H 5.9612895559777295 -1.9321045784205042 -2.511498843742664
H 6.070408337825 -0.2780297247994011 -3.098847508008298