17

C 2.7515993181274014 -0.8756930118403731 -1.26151298903587
C 2.524695802638191 0.04545224614439625 -0.06816036043936562
C 2.964542154609838 1.463177792380449 -0.3334241302126386
C 2.1635356043717504 2.5265979151081064 -0.45725963197081687
C 0.6753404791013646 2.560814615874693 -0.382102650021713
C 4.383853711736881 1.6388616783950252 -0.4513959029863604
C 5.57825432794911 1.7388680386708828 -0.5428707160725607
H 2.460182775434628 -1.8958255588824857 -1.0278159038605739
H 3.8057605408831727 -0.8786707584858907 -1.5535454445955343
H 2.1664205523371702 -0.5496749875333016 -2.124723659359599
H 3.07369605072194 -0.3340227051723298 0.7870614799629871
H 1.469576293807557 0.04100743024009335 0.20865348450147825
H 2.645948114633148 3.47989667780002 -0.6489780406200882
H 0.23165679888616533 1.5776239818307976 -0.20936227261865606
H 0.2624114861165474 2.9674216375638363 -1.305191571674432
H 0.3551368623094092 3.2230705796211994 0.41704536429493183
H 6.628169655704664 1.8535066738464654 -0.6218785233158244