17

C 2.8586467163581757 -0.011761412114696251 1.5745480144823074
C 2.4660865038306334 -0.11001296236894939 0.11181262058257517
C 3.0533668711648807 -1.345848953851482 -0.5988618459032033
C 2.5528608665343495 -1.4307558596558059 -2.016398747588998
C 1.7634208610880853 -2.3835938353834827 -2.4795091041556603
C 4.507358152077485 -1.3362495042681595 -0.5669153456393394
C 5.713447203368149 -1.3121726484852907 -0.5707225798225912
H 2.419120962415022 0.8748517229251992 2.041549864710376
H 3.9462387249224604 0.04412175302848957 1.6902945905375801
H 2.5087233355591 -0.8877585469102818 2.1368882807481735
H 2.7975340286530224 0.7887356040281132 -0.4229472323009988
H 1.3779146527625232 -0.1480955103734699 0.011022483147402945
H 2.707968148166276 -2.240790592657652 -0.06275869202622304
H 2.88852688820146 -0.62587503870257 -2.6762774598757852
H 1.424947430603052 -3.195568561368756 -1.841321873253341
H 1.4244780893704172 -2.3846139932484203 -3.5095027591049774
H 6.775281021015945 -1.3014907861890586 -0.5663491208723053