17

C 2.0951004787647567 -1.589102620670233 -0.15164263760796756
C 2.7339848421847086 -0.224323395374313 0.0834572970115577
C 3.08235503877875 0.5105639496218058 -1.1804044272346415
C 1.9683477959774112 0.8819735662221982 -2.089093631934027
C 4.368183685171461 0.8063134191523027 -1.447394939160519
C 4.816015366026872 1.4964709438052461 -2.598417721503501
C 5.248245049356195 2.073723925950603 -3.5676255184105132
H 1.875359740197513 -2.0837204783803323 0.7952770404780665
H 2.764182116658105 -2.2349435909277875 -0.7284623187025162
H 1.148665150807331 -1.5084731242096776 -0.7021544512859292
H 3.62437143496516 -0.3385168638125003 0.6941345274675872
H 2.0267634741307283 0.40313505402327443 0.6632836047194642
H 1.4916791964094516 -0.010701451876071924 -2.5133279047029053
H 2.312220238949685 1.501034777886383 -2.9156339181538398
H 1.1889729771166253 1.4175374745324645 -1.5427999943735888
H 5.13492186129203 0.5203208717146534 -0.730649872785721
H 5.614677892247454 2.580923627661978 -4.419016898455574