21

C 2.868970585417508 -0.84225234344523 -1.3030177944508667
C 2.512080802528505 -0.09750839308434037 -0.02605503757194881
C 3.061611889278702 -0.7076125050451681 1.27810369533712
C 2.5943805047573725 0.16487827531888358 2.4405395141607213
C 2.5459660514522184 -2.128245381127886 1.4761709207421083
C 4.568096678038305 -0.6515604462104982 1.2416295477219688
C 5.427688692641334 -1.650694344883551 1.3668764243450444
H 2.4839906507105223 -0.309922274168047 -2.181483779672843
H 2.4266356555333575 -1.8438426922902391 -1.3307087508078124
H 3.945747791561174 -0.9472611626729843 -1.4253037438774216
H 1.4202996980389144 -0.03515309724374757 0.07421171737202163
H 2.8727645616316324 0.9320036340813066 -0.10287847442366058
H 1.4969913603459455 0.19343605973382968 2.4856152921345798
H 2.9440243142353655 1.1932616227363118 2.333124993632352
H 2.9607472775376307 -0.21572014060709205 3.3983853547438767
H 1.4461857330460184 -2.128530327787763 1.4694516334761123
H 2.8714265223689996 -2.538454896063048 2.4403714987869525
H 2.884785575035686 -2.8126485431147255 0.6991818570486347
H 4.965597705013544 0.35955241331492804 1.1034643244210134
H 5.106265178511072 -2.681723889713283 1.49802782684251
H 6.499339321958579 -1.4798148894852714 1.3367097608159277