21

C 3.0871084697925624 0.48099105167280454 1.3044986546730575
C 2.6129893483616526 0.04076829516367605 -0.07519966181638887
C 3.0851416985937337 -1.3595892394194435 -0.4760704732843351
C 2.4166576015947623 -1.7954696571525355 -1.7794979903285353
C 4.574435891964551 -1.4266549981286347 -0.6074012795036084
C 5.386083597831017 -2.1962767684443154 0.09712911951337826
C 6.871137394195711 -2.2652832007136428 -0.050835202100765545
H 2.729572023442443 1.4866834952919663 1.5374610104987805
H 4.177012101357373 0.49221203337821495 1.3646436974188147
H 2.71849957918152 -0.1947388033200556 2.0768754257891153
H 2.950487316985676 0.759312256515274 -0.8301356312129915
H 1.5174264826798445 0.06500191360073697 -0.10737431385439945
H 2.783841617338388 -2.064348376748573 0.315529713340096
H 2.6981756501116707 -1.1216214345995588 -2.5935869532599383
H 1.3285792233009917 -1.766507814814988 -1.6889654259453826
H 2.7139638517496545 -2.809999354563279 -2.0604789079006482
H 5.003817017443108 -0.7668003724908894 -1.3661924689144953
H 4.94427850932099 -2.8572642778513573 0.857770066230744
H 7.215630219587313 -1.5785939131159339 -0.8218002842389711
H 7.193005101957936 -3.272256520129754 -0.3100222623582817
H 7.370452034493463 -2.0001478495590224 0.8836827761148308