21

C 3.361690926284184 -0.1511172705175064 1.3517543946708606
C 2.7495062862371595 0.44373117800637757 0.09508159063329018
C 3.443660916107155 0.03153585390495805 -1.2005548205501626
C 2.691145580043694 0.5883544079228034 -2.412992612461645
C 4.90795509790283 0.4338727200205771 -1.2311494042640758
C 5.234631526662971 1.8832732484639365 -1.1118834485585205
C 5.86245893325873 -0.4845031053499723 -1.367228149828638
H 2.812620052756724 0.14553818990007267 2.2408376871358264
H 4.404554863648637 0.1579011673789095 1.4715729358143679
H 3.35072273477086 -1.2453619329791865 1.3056434059640274
H 2.7377394566665507 1.5392239708123852 0.1726991351042377
H 1.6938736613633532 0.14748675977308742 0.021186355100699335
H 3.419169529456969 -1.0617425182123768 -1.254132427169109
H 2.6294575651255587 1.680700869850124 -2.385707912613523
H 1.666982134840014 0.19976459220581605 -2.4203801676987218
H 3.168367338743633 0.29403526893399967 -3.343264131176306
H 4.894298424369593 2.3018959416224374 -0.15692649364150055
H 4.746630986122899 2.4741773326749117 -1.90035829710726
H 6.309519387726806 2.050991827600592 -1.1902758699989966
H 5.62052760676384 -1.5440017808015878 -1.4484985071513576
H 6.903099375490858 -0.21021949627824044 -1.4011404150835818