21

C 2.088927631994972 0.251052729286685 -1.2357980258028456
C 2.5847625540751586 0.030315030866715078 0.1947383851889079
C 3.2979589768573216 1.2300143598771642 0.7669445937054495
C 2.4150853837628308 2.3733768561721296 1.1806320201679565
C 1.8450040308556954 2.207684478002182 2.589048329653637
C 4.618189939320031 1.2290511332281981 0.9115802484437202
C 5.490455358123439 2.310146445849811 1.455573321417002
H 1.5559278861370665 -0.6283316918108643 -1.6026299080147375
H 2.9159732153465185 0.4613975375901214 -1.9108933617873862
H 1.39728638158658 1.09807119654628 -1.2961400390550166
H 3.2611701777199276 -0.8225695308702841 0.20763375254854144
H 1.734523183077323 -0.23704910433609994 0.8345239364974774
H 1.5840992677968149 2.464475828980801 0.4768228828415118
H 2.9503543904013414 3.3182172018167067 1.1292308364497405
H 1.2868559449268873 1.2695093153017967 2.6830730951185022
H 1.1651396472692974 3.0182912149041985 2.841002256115787
H 2.642282563208384 2.186335970964005 3.3329217353431293
H 5.148230916826441 0.326823879343053 0.6056504613776665
H 4.926372432506792 3.198647694454811 1.7428435755356133
H 6.242959145856573 2.609696033190935 0.7222706256340848
H 6.028678944844391 1.9712351297874124 2.3431198618347406