21

C 3.1605815603926386 -0.6201419014615519 -1.213091214603056
C 2.8571553703330537 -0.34457691903697407 0.24786744322873572
C 3.367225801629919 1.0029445431578503 0.7489750481464534
C 2.8431865507256484 1.2807780155513053 2.1739568871842545
C 3.1479989253343317 2.6728402629842902 2.6800192496423447
C 4.853032889279501 1.0643983649781796 0.7130896034995301
C 5.590651007338632 1.900320992809839 0.008021961014806633
H 2.775067246977349 -1.5914470163447274 -1.5193542222158525
H 4.243719089660037 -0.6128771639048625 -1.3971338801386506
H 2.7117957789158984 0.1326293820098687 -1.8541365970561796
H 3.282573257467771 -1.1383876621140734 0.8716463522063956
H 1.7736314199312277 -0.389295009305247 0.4010691425179031
H 2.976090903923612 1.7875559642486738 0.09084485966166024
H 3.266622972619639 0.5342612498860216 2.8491788981619997
H 1.7615880885996702 1.1156513479978365 2.1735326390927057
H 4.218784853662997 2.8648724074300636 2.712953544853185
H 2.7466002395753257 2.8221726780500496 3.690995415314908
H 2.694056304375401 3.4336862829815433 2.0417635897123447
H 5.359113063655781 0.32378777708074413 1.3454659445132056
H 5.136060356581017 2.650613411505272 -0.6355240289766593
H 6.679072375032792 1.8761699240613292 0.026544708254334456