19

C 2.8203951105051246 0.16725485326085365 -1.3346277002330742
C 2.4169126141164625 -0.02112173911907891 0.1201425599323484
C 2.9704852508636685 1.069680981803676 1.0484209094000079
C 2.4211149860113728 0.913998243797383 2.4717514355735224
C 2.8208429873518606 2.0387979624468335 3.413355461551655
C 4.421585026505688 1.0903605521554844 1.042345111611291
C 5.628910547852795 1.0792706989912293 1.0428630362811893
H 2.3957437189024704 -0.6366179990032498 -1.96100149329534
H 3.8983771028374004 0.14471478019580217 -1.4588959614156742
H 2.4555175199058628 1.1123631958089204 -1.731696712476233
H 2.762330697293174 -0.993550306105393 0.4833221245265187
H 1.3312622649154005 -0.01364981189099887 0.2113717345082653
H 2.627557474799028 2.0451527302315173 0.6667896071955765
H 2.770711832636778 -0.05260008529686251 2.8712708976212613
H 1.331031790987623 0.853621753144718 2.405781191845012
H 3.9117323146261076 2.1056208683937214 3.5051970170184426
H 2.4079489048907385 1.8784573758479433 4.408262379180522
H 2.452916204754165 2.9998606316481204 3.0581787815463826
H 6.6929222637235615 1.0805980979923293 1.0392702551375976