17

C 1.0165704673971294 -0.05503225787099705 0.10710306231767142
C 2.5354824148810877 0.01643845328242408 0.031601869471817805
C 3.0433308110597097 1.377750445499019 -0.08465503908922078
C 3.4387390388708763 2.514351087696246 -0.1762133811205446
C 3.9235315832359925 3.8335743956578665 -0.321662762613755
C 3.6999140309202576 4.823049427286313 0.5499693210927008
C 4.218365103651881 6.216931571249039 0.3879861429090105
H 0.6885496865111242 -1.0886023858902636 0.1974598036593965
H 0.5609633410958625 0.38030895365155193 -0.7772511452035546
H 0.6479667863254953 0.5002005451909178 0.9750524414291485
H 2.8892176386652673 -0.5653414652226707 -0.8341663678405644
H 2.981864369126673 -0.4485863875475584 0.9197848914619515
H 4.522238311953849 4.029097742899102 -1.214695406840382
H 3.110567667695246 4.6215804542933725 1.431111398137512
H 4.8062046962927525 6.321979780764588 -0.5278569273884792
H 4.851651539126275 6.496158072884295 1.236026637417635
H 3.3937526821728365 6.9386339635085195 0.3588660061149369