17

C 1.0282483092140402 -0.12995027441909746 -0.0008221630130245627
C 2.5335603435857124 0.05693940837780716 -0.15021691867420278
C 2.99745803809906 1.355643009241696 0.32635884542029786
C 3.3501687044477477 2.4338668292514827 0.7145159053174315
C 3.7887952063854 3.7471316103481427 1.17715049033547
C 3.9367172841398426 4.7395139960742 0.049204357794893926
C 3.3420038372028853 5.924373873599783 0.011772894934808022
H 0.7268484480674826 -1.1152862333886844 -0.3701827208514473
H 0.4878465715316667 0.6267929972180472 -0.5725103198532696
H 0.72754863569009 -0.04775383988296934 1.043911878777226
H 2.8231658877861845 -0.057384164684978874 -1.1976606115838035
H 3.066301086307849 -0.7214831794002493 0.40583993975271626
H 4.7588014280552695 3.641508389878889 1.6827672495967072
H 3.0918879505235934 4.1417115763652665 1.9186128632175716
H 4.583052998676996 4.426851246153474 -0.7621586815429952
H 2.689673173583722 6.255876705829173 0.8018254123932965
H 3.501649449383081 6.599940128878397 -0.819362944780072