21

C 0.88997336703773 -1.023853964491678 1.3762559952684768
C 2.408641345756972 -0.9596814416140629 1.3515478576538456
C 3.0207397737984985 -1.6368961390317074 0.12534672459362034
C 4.501873987299388 -1.5419387421056925 0.08514262271635967
C 5.346828665289508 -2.574821924501379 0.0776509635335554
C 6.834179481862396 -2.481280937094229 0.054761209390205005
C 7.485547442660326 -3.1441142860423366 1.2679594803329075
H 0.4873997241366284 -0.5294492717859519 2.25567275104926
H 0.5386261319000656 -2.0531934430398664 1.3764288999871557
H 0.4683141658276535 -0.5326970634690051 0.49001790732386763
H 2.8198091491196813 -1.4262379687314637 2.255995978890114
H 2.7351438349583885 0.08487707916974763 1.3764727612589713
H 2.5873736124929345 -1.1741310763156074 -0.7720152003414698
H 2.711951871007087 -2.691209336818999 0.108622650049965
H 4.926656408712426 -0.5365373220264772 0.05425365936265431
H 4.92668314622161 -3.583484754435659 0.10467700926203248
H 7.1300673937384795 -1.4360981820298169 -0.010132222913860399
H 7.2086762476209 -2.9613177310054155 -0.8537154399179624
H 7.1726125225105415 -2.6511052966028 2.1887574723596583
H 8.57071132845189 -3.0899484474899754 1.2069617304654006
H 7.203577450310328 -4.192848812940115 1.3342445992490055