19

C 1.0492413676290122 -0.29027992950550635 -0.20246991764018762
C 2.548836539260069 -0.21364293998894573 -0.021294916114139834
C 2.9735320542146835 0.9361425083159947 0.8895016659564491
C 4.446059296816923 1.0011578631806997 1.1206083985470774
C 5.23492164614579 2.018363996024567 0.8028119198553068
C 6.671620611426878 2.0449274319598887 1.024249796483619
C 7.468497586196307 3.0682650634901205 0.7143136301600694
H 0.7665771751934835 -1.1214430154035693 -0.8623607847237109
H 0.6637620945077943 0.6218053092057396 -0.6528881193179996
H 0.5391037744575453 -0.43842052551058264 0.7537399403563733
H 3.0530603237675313 -0.10840051168488907 -0.9834718325250753
H 2.9207092026662678 -1.153207200050709 0.4097984943016202
H 2.462435983716636 0.8260280253619958 1.852964365273256
H 2.633925429462364 1.8828949412784923 0.46125007281421737
H 4.898407273605259 0.11943684031502619 1.5774370205717638
H 4.796626006635612 2.9030642318351645 0.3368010345657336
H 7.099435377038226 1.1581010184836011 1.4863369989122044
H 7.075264940512169 3.9686723362253296 0.25751972020152
H 8.53281868860783 3.0321826585130114 0.9004293537621384