19

C 0.7281327924525214 0.22101016802958284 -0.2849783551912669
C 2.0848873462257766 -0.17043678065536005 0.29712712426750626
C 3.2440006716514684 0.4490595337943917 -0.47125100102902207
C 4.595299238462928 0.04890710337990112 0.05449546929825175
C 5.31486381241943 0.8864646941869792 0.8193243855181208
C 5.135775086218386 -1.271557346544679 -0.250858208305314
C 4.581125930519052 -2.1836547960050505 -1.0473009393414427
H -0.09092715350813424 -0.2132476215009438 0.29127582506923705
H 0.6337334294547375 -0.13121927992775323 -1.31326124931329
H 0.6013557265662038 1.3022899622143866 -0.28598248070398935
H 2.18313084509378 -1.2591588163363927 0.3244283060144581
H 2.143348691420966 0.16135520001339682 1.3475532254538856
H 3.1553460160205096 1.5330634163855974 -0.4511997548201981
H 3.1680973416106406 0.15913994295649173 -1.526177793035671
H 4.956833439343448 1.8806578139376484 1.0567378642560623
H 6.2726369379245694 0.5977180734248558 1.2217490306649594
H 6.082987069858514 -1.5018976325084659 0.2266514875288951
H 3.638213078703176 -2.0209196905618483 -1.548706565146844
H 5.067613283912643 -3.1434403061187624 -1.2194728668683132