19

C 0.9227651099417423 -0.0465320349384817 -0.03170650299769618
C 2.419164774806569 0.1777012814385065 0.07397163174343582
C 3.221536312853837 -0.7595675531944752 -0.8117843561915149
C 4.740085919577651 -0.5784554448614783 -0.7241938670216329
C 5.472079660517552 -1.6535598970821506 -1.535711538703821
C 5.14401481330069 0.7570504546675945 -1.1509357634997277
C 5.477304076668569 1.8456278652597446 -1.5269928768445948
H 0.3749990927278305 0.6385706401276815 0.6121557629217522
H 0.648933484062864 -1.0630389642290792 0.24728618043995143
H 0.5737318751082062 0.115097279406924 -1.0621810756064627
H 2.7384958549852065 0.034543847295501216 1.1166270563346476
H 2.6721927916793193 1.2129562635968716 -0.17675605208308734
H 2.91446891088335 -0.6393909413286902 -1.8508830720063583
H 2.995824220089976 -1.8017274511148957 -0.5401905934193367
H 5.033474773045137 -0.6884414825498368 0.33377495918147915
H 5.211981774919263 -1.5845794556614707 -2.5919436526166226
H 5.211316532957146 -2.642451627062007 -1.1731040262121344
H 6.559241106579313 -1.5351444322269723 -1.4550341163073448
H 5.772164345644531 2.80952814410078 -1.8567643372562512