17

C 0.8896796437227147 -0.09660498367261072 -0.07207926322191806
C 2.400914933062013 -0.09338948360166598 -0.05678767328666037
C 2.958779595749031 0.3976740578560732 1.2760249422139867
C 4.409006709866481 0.4278013391599331 1.3311265689363678
C 5.614933199146842 0.4412042224422912 1.3621423633699992
C 7.038569602063079 0.4362221225108304 1.3621826762972677
C 7.788210753103835 1.003086058012423 2.3096834701817963
H 0.5014902843685615 -0.45738808537890663 -1.0383214667982243
H 0.47909243314092664 0.8998082128382958 0.09280342637076017
H 0.48174589017499597 -0.7558948802702425 0.7057510664230204
H 2.7855566848036335 0.5525095794127317 -0.8514178577413843
H 2.7889309587976454 -1.089470836715052 -0.2511354169970594
H 2.5859974391462544 -0.23724632970851395 2.086589110856606
H 2.5720852421589044 1.4044054332841325 1.4932670894783902
H 7.507055493749933 -0.05618363306992627 0.528550071620451
H 7.351399439730934 1.5074016837971618 3.1607777606387315
H 8.873692548830812 0.9656049329931073 2.2418115226401256