21

C 0.6939765686991206 1.1843140328882449 1.0665491646807261
C 2.1321300413096953 0.8154343446625822 0.7428924521970154
C 3.1502128613559384 1.6457749056183306 1.5139523704508775
C 4.598514676586731 1.2682409116431206 1.1888985948242152
C 5.593902059096152 2.116029682736162 1.9103564946332192
C 6.515489223420729 1.6704566882576415 2.7529983828188445
C 7.504341654258509 2.5105110234655146 3.4697069058614733
H -0.016143440935913963 0.5766380482608487 0.50644337662459
H 0.4946227820255034 2.235094054236925 0.8225380068178387
H 0.4823697654182892 1.0495540821583507 2.133139953969837
H 2.3075734782454487 0.9282219028943067 -0.32789693063557346
H 2.29263052092522 -0.24559642548884122 0.9577043335467379
H 2.9859622487276263 1.5248890388063774 2.592297193618845
H 2.9948696328350812 2.706573313685725 1.2955532920189723
H 4.747737701276456 1.3720207735165635 0.106004116265122
H 4.766003895881855 0.21229165238796582 1.4297139309535087
H 5.53909634994009 3.188084843025633 1.7159651917753298
H 6.570781046915179 0.5913530730048104 2.9374645376267776
H 7.378285395153985 3.5680187115871096 3.2231754145288627
H 8.529179812964058 2.2302312247300335 3.226597176497007
H 7.408242870400774 2.4000156114543585 4.562480083083605