21

C 0.6288396745181761 0.6329226657867567 -0.22311185649690793
C 2.126146046106714 0.4346991162461606 -0.17903825407523494
C 2.8971424647311115 1.5002743866803465 -0.9440444328798616
C 4.409325753170615 1.3055800270031765 -0.9055978379623498
C 5.171815669672583 2.377586997453579 -1.6746960351182103
C 6.648336278347528 2.2073816961159056 -1.590919508890243
C 7.4604397097207515 2.022805526228991 -2.6282197376987475
H 0.09781639998029618 -0.14091655024510416 0.3311226789780371
H 0.25056813786205295 0.6179125852099093 -1.2493971704611235
H 0.3407551434915695 1.6007608597907117 0.20716714125134303
H 2.3783629269087694 -0.5528145708719064 -0.5834172022697007
H 2.461723593858089 0.429203754545466 0.8683506854611318
H 2.6479381243883573 2.4894281608786635 -0.5390922212038428
H 2.5603047464136144 1.5054056527254116 -1.9898061548177126
H 4.659848082801076 0.3129548024760752 -1.310937118349223
H 4.74242765840432 1.3020497961998858 0.13643410786044152
H 4.897648640924755 3.3613815859197187 -1.2697324331419877
H 4.858365342941057 2.3691680456610817 -2.7254537978202378
H 7.077427467160256 2.2281244212080282 -0.5879325094651197
H 7.076092653418918 1.9833370722006622 -3.6448266114626486
H 8.528435473207086 1.901112915151629 -2.499237148852686