19

C 0.9170930301014807 0.06742577750679057 -0.027455632123418536
C 2.4300339108801925 0.0589293235545393 -0.059717872915264654
C 2.9990392235711867 -0.5785909464878107 -1.3251904515620558
C 4.5216104406028705 -0.591320031998888 -1.3507323181055788
C 5.077150208548999 -1.234518667461942 -2.6313425007706712
C 6.528490726526332 -1.2550312635839802 -2.6764348014704917
C 7.720975774571107 -1.2640385617214438 -2.6947556557011167
H 0.532306271765264 0.5303039262750289 0.8846648877593088
H 0.5131024777081722 -0.9443411615858123 -0.0917724929705867
H 0.5153369037448963 0.6356702462674902 -0.8757957077555728
H 2.8173097969499716 -0.4824563769263106 0.818491059745133
H 2.8116786804029994 1.0774148557280407 0.03218190613927235
H 2.6221520406579764 -0.03121456507429873 -2.2015583793797044
H 2.6208930267221247 -1.601832513725877 -1.4127986866283508
H 4.908683103293028 -1.136341362396178 -0.4817913116008376
H 4.912150149617815 0.42425653761750637 -1.2716815822297467
H 4.6981323689766965 -0.6887514422053297 -3.5068734194377997
H 4.695852399235551 -2.2581081316936866 -2.7223367826333007
H 8.785768693656562 -1.2798729253774634 -2.7163236294704873