16

C 0.5617514746418925 1.1445328687740517 0.659762995509794
C -0.8957831281002162 0.7517396380153347 0.4438477405613165
C -0.9071051781880692 0.003958059467139313 -0.8639831941781848
C 0.5427671238424329 0.016629414342590944 -1.3177305823207202
N 1.235393410933537 0.00491759385712039 -0.01611383886072214
C 0.56962959473676 -1.1312582650096368 0.641857352981434
C -0.8902449084406152 -0.7525135528613134 0.43758106092449445
H 0.8486606811808016 1.1862319056029038 1.7104971097678512
H 0.8417855939817043 2.0792538398785156 0.17478545469081136
H -1.739391802498398 1.3303412776177392 0.7989535925194435
H -1.750894976094556 0.005499159996681421 -1.5301071689852754
H 0.8237440605561431 0.900956602223902 -1.8825452771726916
H 0.8286230492949493 -0.8710460293573029 -1.891480674955044
H 0.8613600225908425 -1.1929022170651427 1.7011027040691402
H 0.8443018924326589 -2.0708430603245493 0.1541135812523812
H -1.725667650243494 -1.3385585468481054 0.7776977318374656