16

C -0.8527047195396833 -0.000864273207836094 -1.22509689322818
C -0.5991089794551536 1.0174183018940512 -0.09890116006553056
C -1.3398700974224247 -0.0024710463367851737 0.8221113755114894
C -0.5948275091229612 -1.0220981112655383 -0.10030508390321745
C 0.8528665887363683 -0.7422535223891525 0.3277722084063585
N 1.7586259156107293 0.0025050735999234937 -0.5257010971144757
C 0.8589388957270605 0.744227885367871 0.32899488283206657
H -0.23346736935444976 0.0015849352495404538 -2.1202229080249984
H -1.9032437393348338 -0.0021350033436607547 -1.521014242586348
H -0.902175357658623 2.057432596693317 -0.1787224751587563
H -2.424572046455137 0.00046211588919376346 0.6845729505724304
H -1.0709765213180078 -0.002937370434383406 1.8744600999810122
H -0.9030770754969604 -2.055013067293559 -0.1873666289886952
H 1.311547584434625 -1.3477787969473798 1.1004459617071252
H 1.4822469634184114 0.0003038460877865053 -1.5049397008682006
H 1.3070005224078367 1.345753779923111 1.1021315175330417