15

C -1.025304144169071 -0.0026047648800347836 -1.0749448104137043
C -0.618318491465071 1.0251764391183675 -0.0015707338238904064
C -1.056326875117456 -0.031351063244217145 1.0365765374871483
C -0.5960235124953231 -1.0610081008084098 -0.026962274348995244
C 0.9037160497455965 -1.0760990046081895 -0.007225842911537568
N 1.5655589521546107 0.019039787920367035 0.023538512496288758
N 0.8178880279049878 1.1322410322247694 0.023862702486329622
H -0.49636844453545204 0.0255440060912553 -2.036897658540801
H -2.09777248915679 -0.0003734767820113541 -1.2315885371074498
H -1.062515702211024 2.0285070404648406 0.01327199838889093
H -2.142469183188177 -0.04317000243939911 1.1550426730901224
H -0.5585986572685758 -0.04437208523076965 2.0047350513302473
H -1.04066795470505 -2.0564962753013414 -0.05598780015213707
H 1.478624759762929 -1.9921490216544735 -0.018065429553015676
H 1.302462089188791 2.0068355195698855 0.044079966153100676