16

C -1.6040682174248408 0.9396849647274794 0.3495607784217521
C -1.2320595313630958 -0.4284050539984137 -0.15662449884715104
C -0.2029942414705797 -1.3250307545875097 0.6084836876415258
C 1.038189510394682 -0.7526360645767942 -0.08275790998651139
N 2.1846661660337463 0.09717403065829547 0.12581666134176198
C 0.8395175505763571 0.718589036141396 0.11836233325589397
C -0.49395467554136613 0.8484828993383532 -0.6464989240754688
H -1.36766388169599 1.2089878739546365 1.378154013139022
H -2.5542300431605014 1.3326268684505231 0.010517804801111464
H -1.944747689517005 -0.9249991239998404 -0.802125335154563
H -0.37684895297025145 -2.3824405411797365 0.40323723657734567
H -0.2222726855298647 -1.1656166743623597 1.687058047283123
H 0.927887185840495 -0.992161557731601 -1.1362026332602992
H 2.7077034767739385 0.12788249295746085 -0.7497439544355646
H 0.6764689967660925 0.9875881689044242 1.1553531303348288
H -0.6080689989601367 1.2490611603002242 -1.6460386063303905