16

C -1.1833900807356414 0.8950020576052711 0.5702797842371248
C -1.3130875177209278 -0.4517654423745783 -0.07139963051062452
C -0.28243697125873835 -1.5170281772878087 0.2546079056286532
C 1.0247023007446885 -0.9973777115730469 -0.32505383261605025
C 1.6544072164835004 0.2164805757645829 0.22104166293393437
N 0.8154811666591283 0.3046766305386448 -0.9645530412586578
C -0.5845315532890542 0.6562831125245502 -0.7818879742458316
H -0.5485904048453899 1.0123436283968603 1.4466488747879545
H -2.060587529969851 1.5205892436663946 0.5943403588244801
H -2.2924719343351017 -0.7681492687685813 -0.3948250463592243
H -0.5509018261304902 -2.449812168317532 -0.24500537621234472
H -0.20689553175525438 -1.727999915585327 1.321613894533876
H 1.650317065479367 -1.7057686034328454 -0.8733655522340688
H 2.7053938450544943 0.4070107630561292 0.03903113778879221
H 1.294861610275158 0.6118082412208772 1.160417566487497
H -1.0093890714642193 1.1749206720720011 -1.6350388656875658