16

C 0.5631512336661102 1.2099672701975677 0.6905101843765604
C -0.8725003606933849 0.7770205978956111 0.4533952690775781
C -0.8701139272763798 0.021677692499873478 -0.8578124410075236
C 0.5552621026968244 0.018051954651424916 -1.3680864442957472
C 1.2148785164477964 0.0003410793345016188 0.008397441218709051
N 0.5587668474936015 -1.165471611583202 0.6108522806764944
C -0.8155047248573399 -0.7302094137548834 0.43467373695786476
H 0.8070763877370539 1.2791046648509647 1.758501912532912
H 0.8159985440168558 2.1546098224974806 0.20552749882237992
H -1.7277842185465806 1.3260458191439992 0.7998414854045761
H -1.7342745251565703 -0.013127724754674554 -1.5038672187825954
H 0.8045355741134218 0.9123304101835703 -1.9437134534988092
H 0.8035488388615022 -0.873971423046097 -1.9507915852054072
H 2.302273918187712 -0.05719052253748496 0.03226996830916419
H 0.7762191961743751 -1.222240852283678 1.595804750451443
H -1.6183240136102435 -1.3701236701252986 0.7823573454013167