16

C 0.5833735851100601 1.211170160180334 0.6814320176387242
C -0.8415511689157532 0.7686058494817013 0.423849246818591
C -0.8437108769845779 0.03305578182322019 -0.8665453861954787
C 0.5768511477765826 0.03244581580305947 -1.3811992802457849
C 1.2589475058865274 0.018991427669239842 -0.007432598548279683
C 0.49233410937657474 -1.1293412460797336 0.6460565869994952
N -0.8933019796436691 -0.7058186603947709 0.4158691688485821
H 0.8265041516832456 1.2759147934094313 1.7443495339840556
H 0.8229781607788299 2.1664653089590638 0.20393685385828167
H -1.6997604810742046 1.2953526651734855 0.8119645599949895
H -1.7115684135344933 -0.03655470916007317 -1.5079261680208906
H 0.8136070243806705 0.9237055000987552 -1.970976223244294
H 0.8116360942233902 -0.8521397122093334 -1.9776392705684516
H 2.3425835919097184 -0.022657981750523457 0.0072833371804763
H 0.6755941943997128 -1.2261498741368067 1.7242793182752336
H 0.6713956581245633 -2.103119849142361 0.1754883648297957