15

C -1.6571382115774538 0.6715007290318725 0.6093654065468325
C -1.1179015741803768 -0.3672229081412634 -0.30153937701969274
C -0.003902929990900795 -1.1942913886364512 0.22554218316520072
N 1.1932954995631933 -1.2608625047783946 -0.5971832376778953
C 1.126859704043876 -0.27888056068762374 0.48410902111432413
C 0.6869431474172105 1.1233558066770761 0.10140412630002765
N -0.6872561528109791 1.0380247209696571 -0.4145092221126071
H -1.3141161865622393 0.6416233118298266 1.6385337044284731
H -2.6524885605491177 1.0671327576302547 0.4533656079259971
H -1.7336386076700392 -0.7510007521109985 -1.106616168164366
H -0.20889815182164664 -2.072430461940451 0.835057743630505
H 1.0330339592913713 -0.800555734475617 -1.4947464309384424
H 1.829822742544301 -0.42490251313376054 1.2953434574432563
H 1.332839420541888 1.5462430782354029 -0.6738422647995299
H 0.7301796493054123 1.7967823378168661 0.9651333418973425