15

C -2.646031577563948 0.36103630285806537 0.6624981147292798
C -2.466201318720794 0.39418606269250867 -0.8399430174375808
C -1.2910885013800448 0.20921217609989817 0.07752409644729667
C -0.4724894616167214 -1.0816702618392506 0.13952745316841753
N 0.910130223919139 -0.6807418866424214 -0.07398660528804361
C 0.9248649486339794 0.5938322597389453 -0.03130072236822736
N -0.2750449646904596 1.222928131861817 0.21964142062376757
H -3.1167672279757275 -0.5126279861103382 1.1022919301051959
H -2.8809138031212265 1.2952149573253469 1.1598741901386103
H -2.578298203582974 1.3563727015921807 -1.3393336403352238
H -2.799723848566439 -0.4519245382305928 -1.4185653023910914
H -0.7882966137453695 -1.8176722060056143 -0.6134499566011168
H -0.5640992382676138 -1.5536335834270545 1.1260001936218202
H 1.8185199096542124 1.181839683595545 -0.14172747771705152
H -0.4378788660350599 2.1310399562305937 -0.21027910220416832