18

C 1.2565536994360809 0.31312425980628134 0.17277908098142125
C 0.9391122879874644 1.665561926201076 0.756196891193995
C -0.43140646550863465 2.261220006397513 0.6147370611325382
C 0.05675067961282335 1.8030210128181303 1.9618604766870458
C 2.4191825149253092 -0.3616755749285688 0.8448657970215002
C 2.2026689288882992 -1.3251620001909001 1.9460797676062558
N 2.6651300281932695 -1.7809808084890155 0.6363861756829601
H 1.4607801161981242 0.42150326048508746 -0.8900926852952565
H 0.37012493971053234 -0.3245673819004753 0.26143494700090797
H 1.7611300394057954 2.3826172437947744 0.695802632677953
H -1.1824780347740087 1.6569148000342493 0.11740720811721857
H -0.5203344258812096 3.325226615093999 0.4338741237481105
H -0.36986813728269524 0.8898058297927295 2.3667783935466615
H 0.29418464640575814 2.550624320551254 2.697902316681539
H 3.325891797341594 0.2273010836760387 0.8678995990697399
H 1.1801418319666708 -1.5270950795697897 2.2399417398436317
H 2.926656401579245 -1.417369255776707 2.7448828720619294
H 1.8932284744987584 -2.1930096693912806 0.1181943312560431