18

C -1.2129193926594986 -0.10268397351619495 0.8747492974477884
C -0.5897988243906007 -1.02996505666043 -0.18375876212637535
C 0.8843015086420941 -1.2725556640140057 0.14648441265481058
C 1.6689966588576075 0.047729527532860166 0.05614831442626586
C 0.8100515723743806 1.2874054557471386 0.3663032341838756
C -0.6474080289559483 1.0130216955940312 -0.01015345848456187
N -0.7812495873155333 0.08521404290046342 -1.1467431538397825
H -0.8438029563657209 -0.18098248342236428 1.9002881037626649
H -2.3039808044597208 -0.133135960406247 0.854762531607431
H -1.119684303364958 -1.9512346407354675 -0.4312171267786108
H 0.9531162859939578 -1.7093626971905618 1.1495478307177158
H 1.3107086609429361 -2.003258293596365 -0.5438351095101523
H 2.0484944420536273 0.14544946878417023 -0.965399811532906
H 2.554880761655793 0.012916861037910817 0.6905396038199684
H 1.1989992099667925 2.1454342392082566 -0.19626127099652524
H 0.8632108472027605 1.546146724964668 1.423860023481215
H -1.2307474671904632 1.9356456413004077 -0.10495446456076273
H -0.05199190683951383 0.16443078940062136 -1.859276146898965