17

C 1.8585163764922612 0.07961615822111918 -0.7607869462097582
N 1.776396828460048 -0.1831734721845958 0.675130444478782
C 0.5507637900461925 0.004148866487841872 -0.0834979811737061
C -0.33751295433959166 1.2175920770648134 0.13992063945189995
C -1.7253341301595635 0.7005686191495284 -0.2222067428848064
N -1.6540631747206096 -0.6785245624603113 0.23537509882752092
C -0.3836821297674732 -1.1873439118199305 -0.253825703556667
H 2.2131297046281544 -0.7591836794979708 -1.3583121528148159
H 2.199856795371225 1.0575887918126856 -1.100122243528918
H 1.9984290990481781 0.6579171391858086 1.1990724667635868
H -0.028663697860991637 2.0822780375817285 -0.45766421710348765
H -0.3039762397410075 1.505238000231853 1.1888999759136885
H -1.8904058367794097 0.7914056389709018 -1.302919027151911
H -2.5179799904566096 1.2498777463684096 0.2835977003628302
H -2.4422204813366424 -1.223487994515819 -0.07323394061898693
H -0.41989310592228263 -1.483673082810354 -1.3172462413349506
H -0.04291390667014761 -2.0418199641889876 0.33349924495835725