15

C 0.905912358882299 -1.1890624277823196 0.8075840099433427
C 1.220056346493696 -0.30836241688181126 -0.33296420193722426
C 1.0517677461333175 1.1827438914145452 -0.33520978818793684
C -0.24993416711703467 1.6177516298682932 0.327733621107933
C -1.3409631972471225 0.6093242344795055 0.13219399334283488
N -1.229987303074798 -0.6190719703129371 -0.12905552402385584
N 0.046396197286812296 -1.184460085630906 -0.38058811146432603
H 0.486666189465608 -0.7434200601061823 1.7000290367860018
H 1.471695369724394 -2.1040411478417314 0.9699027396428116
H 1.9889299747356606 -0.6629591943067966 -1.0181678399709662
H 1.0414872923854572 1.5144833248154865 -1.3811994237520653
H 1.9079649176426534 1.66587452410391 0.1309284686467732
H -0.5766786368312953 2.5907282029656926 -0.048731814516459
H -0.10887293847825172 1.7469249911290798 1.4039525386439753
H -2.3648795723606106 0.9564814691718704 0.2794907285475323