18

C -1.794796679522845 0.6311002750846657 0.2738195252492045
N -1.7585328213503524 -0.7651699543625334 -0.28580758529965733
C -0.2882677052241174 -0.7247840453813756 0.0344287368797542
C 1.0138891879548824 -1.1110410453402837 -0.6207674715134872
C 1.9383994463406373 -0.010831962153751115 0.012971234626529916
C 1.0281627534093358 1.1297528505903196 0.6163131498256826
C -0.2913642579925672 0.7674073247835221 -0.027227090110866194
H -2.0339247077080667 0.5821241594115357 1.3390974604868635
H -2.4867351160815767 1.316292746950915 -0.22801666299313383
H -1.8663752332700148 -0.6938134992982482 -1.2996820160212723
H -0.240459077768565 -1.0359964326541093 1.0909377645732858
H 0.9519080688571889 -0.994778633657544 -1.7097063617234065
H 1.3704729222759775 -2.120832720394892 -0.40368414170158823
H 2.613155260797221 0.3924536710582488 -0.746954935982458
H 2.572701633916991 -0.45095127761975945 0.7826123860753545
H 1.4197667570608914 2.1198831811676966 0.3829818988430339
H 0.9882583349809275 1.0409643790771117 1.7025729012045157
H -0.22559332873758553 1.0345590593653557 -1.0920225587666308