15

C 1.7971343393334134 -0.19741349809434247 0.2444319097415587
C 0.8568215892709278 -1.3832813048587416 0.553324563159397
C -0.19834925683352111 -0.7955187004780284 -0.41578139427805766
C -1.474607897536243 -0.2894787487990331 0.1693915479347143
N -1.4179190419556358 0.93466882836382 0.5373777765749915
N -0.1457598657141545 1.422377327439466 0.33696784601228946
C 0.649089216328093 0.507799465587017 -0.49882928422387207
H 2.612434488944937 -0.47683890507594767 -0.42383487544618487
H 2.1973567242280594 0.3436337837748003 1.098612214351985
H 0.5069948994709803 -1.4065853213693695 1.5888299115409559
H 1.2376225232221967 -2.3749904282976937 0.3040969469917745
H -0.33173402615841235 -1.3714201058162638 -1.3357156241133996
H -2.3802842932257007 -0.8489767180204257 0.314737411999132
H -0.18239860974297809 2.3891544638798687 0.03723513570300205
H 0.878953123917404 0.9362500027251196 -1.4736588548877834