16

C -0.31954481166462145 -0.9167842969403994 1.186247176763268
C 0.7768590984130466 -1.3300880654666822 0.1902273758023737
C 0.8757684373351186 -0.058604656531360606 -0.6994070425518126
N 0.6746576957463596 0.9736937816596322 0.3263618864477529
C -0.672460689262567 0.5118893131290336 0.7054548453187254
C -1.3626870503306667 0.33616298993117716 -0.6359377747393907
C -0.42142389272382297 -0.019455005558583607 -1.497635625771804
H 0.07337307603408562 -0.8738341440295436 2.2101459728371355
H -1.1855970831012965 -1.5765841431503085 1.1814737813407248
H 0.5370013308840493 -2.2137890521461525 -0.3920066045345164
H 1.7339365498918478 -1.4940989505349043 0.6970933441564963
H 1.804531566601133 0.03661490196853173 -1.260954791026984
H 0.6000158541525613 1.8751979309589883 -0.13247146158228607
H -1.156292752373295 1.1421357119011375 1.4340106794337601
H -2.434102246551741 0.34769727624843655 -0.7971478745886937
H -0.5385236865581209 -0.3524345517604559 -2.5253762361647567