17

C -1.5181382058535347 0.7660648906521246 0.11699412329045558
C -1.3863139383326715 -0.7453130311034634 -0.09547349793233882
C 0.008840332400131344 -1.2548330935175125 0.2174716072193797
N 1.0680484411463256 -1.1317984545194295 -0.7860566532406407
C 1.1229087308838077 -0.2999026809521459 0.4067890909963339
C 0.844334286729955 1.1880249469170525 0.3168908145881265
N -0.3908677837485313 1.5408060992679353 -0.355710748253739
H -1.6166407707121846 0.9646483224994866 1.1987265357519545
H -2.4327809692833053 1.1390371290140668 -0.34369247792157315
H -1.6382013978986447 -0.9951594083342145 -1.141313306870557
H -2.1129490694988577 -1.2722311130286024 0.5258187159548082
H 0.043790018076939094 -2.2033592676974747 0.7434884631520584
H 0.7263882012763396 -0.5829196699577789 -1.5684831506814603
H 1.9265423685170657 -0.5696559784387359 1.0887519356422477
H 1.6744867263276761 1.689269223267049 -0.17148020044851467
H 0.7953241715578016 1.5767724948404083 1.346690295836184
H -0.30164105494630616 1.4762344681728388 -1.3638576342154611