17

C -1.7248320192043778 0.6443470326738933 0.3506432268379543
N -1.7402783528846522 -0.7406535592656155 -0.2582671921469963
C -0.2579084710551413 -0.7314134208973733 0.011348160766271069
C 1.040311511284265 -1.1034318672375216 -0.6466668071648939
C 1.9322631428976267 -0.009438516315610785 0.04288451928297822
N 1.0264366292522935 1.0940539963763363 0.5428523879200903
C -0.23023213317467672 0.7565628422603115 -0.06730032995852138
H -1.8665686547730997 0.559304265367291 1.4331564057067823
H -2.435906715391341 1.3525905213018707 -0.07299666742042912
H -1.8921018404883494 -0.6291025459471382 -1.2585235298253838
H -0.17781906929841737 -1.0112713512636398 1.0706671738848277
H 1.0141782601717266 -0.9655901538072669 -1.726486536829704
H 1.4254343175824065 -2.106953674960581 -0.43391646225751057
H 2.674537621899124 0.38514023111134216 -0.6617001890324024
H 2.472495176511143 -0.43970785049945404 0.8919714307162397
H 1.383197122221754 1.9951601777142918 0.26477909590019005
H -0.27036984912536005 1.027089625793401 -1.1361580029498843