18

C 0.34233524004024074 -1.7586881860984642 -1.0995265810068673
C 0.6649289374474707 -0.3144832292713886 -1.0039764490135639
N 0.15344944034887947 -1.0382238162843054 0.1449812714769888
C 1.1097367431986662 -1.3165801076312125 1.190090911131233
C 1.1949841852543348 -0.31022074468757943 2.3459677275021957
C 1.3566267083151056 -1.5038339385546144 3.310484405280594
C 0.7318182747269377 -2.4032023736448664 2.215912575389866
H 1.1810578817506612 -2.446117027043269 -1.1555970700379419
H -0.5598123943093191 -2.086888014268785 -1.5959886544886452
H 0.0010555949760065867 0.420446486279683 -1.4370173686650363
H 1.716297285932294 -0.04807720526240118 -0.994585427073101
H 2.1135877860135364 -1.5134351681348472 0.7784579740368229
H 0.23076011449574912 0.18094780800439908 2.4825693287724357
H 1.9854197002901848 0.437996738239871 2.31340715105762
H 0.8410352580631671 -1.4526176037047107 4.271906114043841
H 2.400040176951329 -1.7539499626317487 3.4857459771639103
H -0.3583088077750502 -2.449790416466662 2.30776793583073
H 1.13370583432468 -3.403575900300447 2.071178073358399