16

C -1.0204941640292762 -0.042166882634210166 1.0934584500953295
C -0.6478440598899257 1.0029280584426425 0.023543574208380946
C 0.847025978099921 1.266725592024088 0.005324499979176264
C 1.5938959808991777 -0.03546707533516423 0.007811972430251399
C 0.8925368401556741 -1.1708433052341751 0.0011505228033426445
C -0.6068149593548082 -1.033756443822996 -0.015959479113729077
N -0.9480696141080491 0.003318246328847012 -1.057031067675826
H -2.1013804375353473 -0.05250876263265048 1.260117708037018
H -0.48175231732345347 -0.06319645411605868 2.0400999524890016
H -1.2303947653420901 1.9327224569097488 -0.027637329585107773
H 1.1453658930804238 1.8788705752109747 0.8598834400392936
H 1.110654627687101 1.8397232898670701 -0.8905292399421858
H 2.678185414182102 -0.039387760558270216 0.024261935442569646
H 1.3584195969394413 -2.1506923276053724 0.010936578611565162
H -1.1296147817202185 -1.9880696255401658 -0.11811409628465572
H -1.9555478618563833 -0.011626693792363798 -1.1674477039172249