18

C -1.5021126001407907 0.7752289485800907 -0.04965613938847964
C -1.4852918736034386 -0.7803200948508148 0.057956085040556216
C -0.1820499416398283 -1.4337672282965668 0.6161572421108782
C 0.8255140168152713 -0.674329767397786 -0.18321040330101432
N 2.0922580941680335 0.014976289571110543 0.07512301223728544
C 0.8272591593723004 0.7383978146407403 0.1978411389186767
C -0.21862027259662833 1.4512712333085285 -0.6228137521793384
H -1.658906069313626 1.1830726136925263 0.9482678109697389
H -2.3688004941342857 1.0661300108979987 -0.6427368075452705
H -1.6506146664049395 -1.1955776644198628 -0.9403056047027709
H -2.349201468947689 -1.0873539386684887 0.6501526272458058
H -0.21599066088539118 -2.519592138754762 0.4440298543027293
H -0.07064386099472995 -1.2624492359938517 1.6796715831172853
H 0.6476082560585112 -0.8166927186162647 -1.2575283989412027
H 2.5609385779751292 0.1506387741860318 -0.8160768611902546
H 0.6457406310738465 0.8986798182394533 1.2561397045243996
H -0.10256860694918778 1.2597861840866296 -1.6915018702952964
H -0.271339103217474 2.537258766780423 -0.47239342403723206