16

C -0.08269265178763703 1.4457990855742195 0.5709174161275723
C -1.400340222561272 0.7294333619713158 0.27357281113552956
C -1.5249922948424706 -0.49581470867466604 -0.2569293735680616
C -0.3728797037263553 -1.4459574588042345 -0.5715677463313258
C 0.7370830203002445 -0.8116017878742059 0.24022606172447045
N 2.0570495975210292 -0.20986512916096714 0.09401351048017305
C 0.8600791464974245 0.5851241159343576 -0.20881384256894853
H 0.12650336733057613 1.4463287059406937 1.6459579579254748
H -0.13490109225667699 2.4814146528567185 0.24099236802323412
H -2.3144434808811996 1.2909230387658301 0.4843352755907281
H -2.5321985872796122 -0.8676240262293805 -0.4434864320835076
H -0.16608632739436405 -1.4640788844944022 -1.6432874271624007
H -0.6196227374915385 -2.466666411754024 -0.2577109721079971
H 0.5297793707389995 -0.9107365689918739 1.3042012155995175
H 2.5171822210572716 -0.42416503043457526 -0.7931736416008544
H 0.6734791409166484 0.6922239393146434 -1.2720850088308997