18

C 0.8763499681538478 -1.0973203598117547 0.4787390048155881
C -0.49283333592648765 -1.6309766030159587 0.04478628286987223
C -1.5199811492765845 -0.5983837628141525 -0.289322268909099
C -1.4288671211777557 0.7270227983736304 -0.1605306638484269
C -0.27268017679236745 1.4921770388781728 0.4252076510168672
C 1.0870372163932163 1.2628408138561389 -0.23446126663027703
N 1.382824740262024 -0.13636862680225575 -0.4790680888847765
H 1.5628386721066811 -1.9407517522072248 0.5122378809182909
H 0.823380586473582 -0.7070925076921392 1.5057346009089372
H -0.8858239365579877 -2.2984336129847205 0.8219429800710931
H -0.34792642925837053 -2.2527022300044903 -0.8450212536583641
H -2.436021170029539 -0.9918196673591595 -0.7137922796793914
H -2.281108057910703 1.3150170080087515 -0.48063404544237365
H -0.1969176115347599 1.256900738052993 1.4920776404788452
H -0.480177292986703 2.5642118729887864 0.37884243089978636
H 1.8402230118755702 1.7571961935943463 0.3970043038313151
H 1.0969112067006912 1.78085400159235 -1.2065899837825595
H 2.3782254588727225 -0.2595596052916188 -0.6254948219199032