16

C 2.009834868768728 -0.24370467512301694 -0.06002169801228637
C 0.6818832164899814 -0.8653043520011203 0.20390660655859202
C -0.45403461259287686 -1.5215870714246371 -0.5075664076133524
C -1.5955208808838188 -0.5594147157912102 -0.20574354376718815
C -1.4283226726324798 0.6750125890131132 0.27281183076435506
C -0.07699416836295446 1.3378728808311697 0.4383976937413146
N 0.7943572499305295 0.46978159536409414 -0.2926082328877549
H 2.5920970449790977 -0.44027865951911943 -0.9604176821608935
H 2.6110748391615353 -0.05620010959249595 0.8313634237630451
H 0.5184938621421522 -0.9139061569083806 1.289912522150957
H -0.697334736714792 -2.5279250595571434 -0.13353894683583448
H -0.2864452974312079 -1.605661803819398 -1.5847764899414947
H -2.607110340679499 -0.9411749197750452 -0.32382375172471467
H -2.307467954281472 1.2729728661508102 0.5158224708565465
H 0.1816681922332465 1.4386277824499767 1.5132140321701386
H -0.0896237279879673 2.34197658521825 0.010559555829303801