13

C 0.952178635428533 -1.3458959580571708 0.030367389279485856
C -0.516210781118346 -1.5569862936146714 0.020384294600696067
C -1.47243219665424 -0.6277093480062004 0.0029089974932160934
C -1.3118865250280827 0.8257524070603335 -0.0210475881861044
N -0.31513006488696443 1.6162371555241322 -0.02342868699691056
N 1.0273792926413712 1.23044413079208 -0.012687554965936966
C 1.496413257380299 0.0499540299764621 0.014363477136364046
H 1.4021826372003345 -1.8814239269983442 -0.8149917554436568
H 1.3848759246137936 -1.8523244817877003 0.9119240288077869
H -0.836837013758163 -2.5993675690123914 0.03916881626292538
H -2.502927814541571 -0.9607397631327159 0.0009352007569527255
H -2.25827676128251 1.3678562575500404 -0.03428700891790435
H 2.5905832903749886 0.05750698102126064 0.02290053616404669