17

C 1.7466927702415982 -0.14717431916512635 -0.011699541611667719
C 0.8627142676150769 -1.2669563039234815 0.520265937862127
C -0.4018068327993581 -1.4785568210004214 -0.29642880832129354
C -1.4588298306011356 -0.4229189595709133 -0.07622219288030219
N -1.3636475596228572 0.7929615498947832 0.28948727056285534
N -0.15110314036410508 1.3775457323964428 0.4688913705616263
C 0.925491269434249 1.0526948121185509 -0.453494255909617
H 2.332545328256034 -0.4958395622201872 -0.8665232173044776
H 2.456674879366719 0.1540585585742282 0.7604349198858423
H 0.5762042692538569 -1.043990808874518 1.551128205188009
H 1.437231545772132 -2.2024833273915707 0.5594622770304254
H -0.8547753124045586 -2.4389380344365 -0.018160692654551586
H -0.17232861044949682 -1.5746767841970923 -1.3602998932230246
H -2.4925625042580557 -0.7659410966981088 -0.1784295371647687
H -0.3042526438716318 2.373997196173087 0.5367232853228379
H 1.5677670701757707 1.9336381643356928 -0.5398375654917301
H 0.500241499221112 0.87081932945421 -1.4527539454781335