18

C -0.29345722638274707 -1.3378849255719882 -0.24781510876991517
C 0.929129893360207 -1.1501046688072247 -1.1102610226445937
C 0.7324547210917104 -0.3151823491612201 0.12036904078078224
C 1.6394306088394612 -0.4538681809808404 1.315380955525119
C 0.9576423852963252 -0.20525812440799646 2.672035417168569
C 1.0096776785356454 -1.7254983075816899 2.88440837492346
N 1.961831775030456 -1.8272748858939116 1.7686686644981213
H -0.3480853553855996 -2.248233373434492 0.338739858823539
H -1.2488447963158298 -1.0036396251272595 -0.6323048399925865
H 0.8089830042023556 -0.6789885327910209 -2.0767128448177763
H 1.6878633521476882 -1.9200797990074832 -1.0784587575844684
H 0.44761379805283097 0.7152272972130399 -0.062414024245188306
H 2.5410725873978 0.13720262436747505 1.131140019899759
H -0.04017707830513319 0.24637354981289453 2.6292331835923246
H 1.5725617229657727 0.35489343009433005 3.372373849559575
H 0.04881155794494014 -2.2199423641925784 2.7116196668862047
H 1.411346753548024 -2.0807589707558223 3.8413665004750155
H 1.7974521085751813 -2.5680914128901065 1.098564535120799