15

C -1.5869091466751881 0.6731422177766181 -0.012129579902708527
C -1.2999171224793202 -0.8164802844065879 -0.26915811917318094
C -0.14226093479125618 -1.283672156922177 0.551373087107107
N 1.0634814382143698 -0.9236438225038025 0.35858979273435176
N 1.332123938257909 -0.13621351279874588 -0.733469728767741
C 0.7554762884046156 0.9970108347050983 -0.818730455688564
C -0.29104435726010336 1.4815095774206966 0.14407434951411874
H -2.1842612701539434 0.8053433319003535 0.8914409214481973
H -2.188301443639803 1.0521153512326775 -0.8444417527002913
H -1.0472674385488379 -0.9534997198329039 -1.3238858432014773
H -2.185481780020098 -1.4180501095125961 -0.06371107405358632
H -0.29415052525924235 -1.95602873209834 1.3925576804016853
H 1.0394127367403914 1.6126266919762746 -1.6634321365601903
H -0.4808124812440817 2.5466663991016176 0.00039268449080956695
H 0.0913368336975741 1.3387452322691071 1.1570860121303213