16

C 0.7715167550234533 -1.2412958189838459 0.7384052193976366
C -0.2657470618240986 -1.257160510840647 -0.3246664996800347
C -1.5160665810586045 -0.49622505786871896 -0.1298640452630766
C -1.5086121664382302 0.7952231161452851 0.18164319280072588
C -0.2247951393662439 1.5322358873483957 0.3598348421229948
C 0.8799816783734383 0.9239238706617835 -0.4935652737287217
N 0.9780730839329749 -0.5243002662005458 -0.4894506915812249
H 1.4027024704415554 -2.1125229292387764 0.8907761083509007
H 0.5236852973562222 -0.6972285720986451 1.6463173307600583
H -0.3530934601671496 -2.1460408163781346 -0.9455551884841165
H -2.45217032649412 -1.0291717243402168 -0.2750919764100315
H -2.4496602507419554 1.33137878501616 0.30223105245899384
H 0.07098267656072396 1.537505432829607 1.4156791036705099
H -0.343163768492269 2.5934777345385083 0.09174605115172764
H 1.861777763820988 1.3263076330819612 -0.20315370977783154
H 0.7249821783386371 1.2133634799760815 -1.5372799466913232