17

C -1.7212508720984039 0.7953712897039374 0.4515565119601805
C -1.1083034576904538 -0.33548445297157387 -0.2787696546458002
C -0.27838128243895566 -1.3749298785190764 0.44070068996995554
N 1.1096051944921508 -1.3593426901203227 0.013368478222396412
C 1.689852606797917 -0.024600720887735156 -0.11041078441867438
C 0.748074329108667 1.0558336423035615 0.40698566481315746
N -0.5036969640059222 0.9942783102600927 -0.3275539563125814
H -1.6279718120947204 0.8027617657937721 1.5315047208698893
H -2.61019518716559 1.2866651773332494 0.059400728136291665
H -1.557750546711917 -0.6460011416034218 -1.2235956188279946
H -0.6800008697165465 -2.371414995768538 0.2831974337499982
H -0.31511983651038517 -1.2057499893509993 1.5273461367640708
H 1.1897523457341415 -1.8415082091452866 -0.8743736528341013
H 1.9211275813633204 0.20888611864737008 -1.1526018652947287
H 2.6322435070419328 0.03384759152136474 0.44852753224079633
H 1.2032626647012796 2.0408074210829428 0.2642142207625403
H 0.6026163095052953 0.9316445005458961 1.4876538956284133