17

C -0.817474847999339 -0.02056112722669907 -1.1603345746435936
C -0.5932460279732872 1.0790350607794632 -0.1070984728166038
C -1.1479421521826874 0.030263926228317625 0.8582126932816423
N -0.6617057623766777 -1.0371718779116224 -0.06767380455501676
C 0.7658387479172941 -1.2149637270789024 0.19802240104599972
C 1.598824764873058 0.05637146704376643 -0.07010230125277224
N 0.8186266566232032 1.2661837185939084 0.21010204922526576
H -0.13202994453319758 -0.12010906809623212 -2.0032539301396186
H -1.8511839729362856 -0.04307611695185938 -1.5332268376680498
H -1.0815600878473624 2.0492611833008905 -0.19583868240412355
H -2.2387189369467917 0.006840094865094304 0.9021397983869311
H -0.7249751186339728 0.0029389824781207085 1.8617760033405537
H 1.1491361887207994 -2.0280548004471317 -0.4293489464785565
H 0.8658554654679125 -1.5334229763382503 1.2401828388102465
H 1.9330577381046337 0.031829928380870405 -1.1185787702525973
H 2.5013135260814585 0.04949194075759032 0.5484219862318738
H 1.1980679415834836 2.0355987087242498 -0.31622543197951747