13

C 1.6303663040765481 -0.574705398208647 0.8175937687530666
C 2.494294663883712 0.13756657036716172 -0.29263636862362047
C 3.0462232297132656 0.9359443407114901 0.8646204307392379
N 3.823655881749554 1.8600889802211276 1.3551831006236972
C 3.536680754556864 1.8024920566580167 2.700154904411964
C 2.5904619122531787 0.8515652608965032 3.01035952034138
N 2.2992690215019604 0.311762561398134 1.7789710050309187
H 1.8531797289743728 -1.6285620838441066 0.9679192019186967
H 0.5575804382559548 -0.41600515734836463 0.7474898654387171
H 1.9105958953468078 0.7000271242474682 -1.0247854753036607
H 3.203393369418438 -0.5058920722460087 -0.8061211567791764
H 4.036723465772846 2.4651877403821194 3.3949863121345225
H 2.1438576228724258 0.5428516822179847 3.9375247991897826