15

C 1.6877669792784462 -0.18771903849283134 0.3699433464910658
C 0.816111790643716 -1.429830389363214 0.0666856953884498
N -0.25124253541045727 -0.5459509341382651 -0.49563497867463374
C -1.2747695223855413 -0.18317587855873155 0.3804781114184233
N -1.3284595367915735 1.0164911593049055 0.7842927835400709
C -0.17024183572373358 1.7132418522603323 0.22745143992841707
C 0.6668275574620144 0.6248731026358822 -0.44809401132124954
H 2.709212476465982 -0.21593822201655508 -0.0049132385108077575
H 1.692323992968185 0.07762510642896328 1.4237367963553356
H 0.49095046614792215 -2.024347535041155 0.918344404776272
H 1.2233994103367773 -2.0896871917695936 -0.7011026377684566
H -1.999095513305862 -0.9315183514873595 0.665473846211868
H 0.3709423357431164 2.2444514672164684 1.0321461828929033
H -0.5051459911322317 2.471391389558091 -0.48544374776293064
H 1.0269507465326637 0.9142168863153688 -1.4395633777100696