13

C 1.3847089222083577 -0.7030360264559276 -0.3668984239874249
C 2.534009568761958 0.25473511382573666 0.09230160924775103
C 3.1653464724982037 -0.03668268256391039 -1.2547199914866003
C 4.047531299783725 -0.03378219858711756 -2.3151747470843196
C 3.40676336906221 -0.9026265728496049 -3.234291547028889
N 2.249129211133348 -1.4046147133622466 -2.791512623846771
N 2.162157956267317 -0.850245574673839 -1.5978793984682513
H 0.4140722687728175 -0.24438820390855498 -0.5184151200872228
H 1.287349774429609 -1.6331609379050527 0.19374487517062325
H 3.089197871910977 -0.09181535693264467 0.9645563712540057
H 2.2270906282766405 1.2880962235614746 0.2483642881381343
H 4.9766306978476 0.4928637616273128 -2.4470283726345645
H 3.7637225359070716 -1.1823436912019625 -4.2181153108218385