18

C 0.2550728674249875 -1.607526239862258 -1.103026932416133
C 0.8835309109855554 -0.25734680449713143 -1.0267371899472202
C 0.2356208659996119 -0.8545559977100924 0.18696852862457122
N 1.0664176104228167 -1.3046217918821117 1.2344555710662046
C 1.4134846536416568 -0.3671651954715308 2.3151481281241577
C 1.3431219311788392 -1.5464443251844995 3.3040840126566784
C 0.535956632506124 -2.2572567952568625 2.208103796721765
H 0.9225991143864531 -2.459865931904039 -1.1577380357049263
H -0.6728581854915647 -1.7178405633659024 -1.6544883089016178
H 0.38605394905594775 0.5764524589894264 -1.5180485486834039
H 1.9612789241944335 -0.21148991543492657 -1.0203150421384632
H -0.7263623134584294 -0.4221495930750922 0.4785185673728882
H 0.6147287934399709 0.3647048381110828 2.512915378055945
H 2.356384178327407 0.1603802831709717 2.199803939516858
H 0.8609186764055634 -1.3864734696964407 4.25992309202682
H 2.324184456750513 -2.0138668093200454 3.4552101031321647
H -0.5529951286350931 -2.1432511615316856 2.3631006259628773
H 0.7507183241045039 -3.3119227404105396 1.9958891017101352