15

C 2.10516776686616 -0.1807156538526801 -0.03476506478016358
C 0.7888170050086104 -0.854430347072917 0.1646872742104845
C -0.406144608221425 -1.4122355482132425 -0.5450558932386816
C -1.4967780964561883 -0.43467718575064423 -0.06368147559057472
N -1.350584704780732 0.7073589086749837 0.5125652601607301
N -0.07900478765708484 1.228450349295509 0.7355634960691174
C 0.8332677294993185 0.6058181195034777 -0.14812243308322107
H 2.6628846560954895 -0.2467283834253055 -0.9704874476199876
H 2.728097179104606 -0.1379618157553062 0.8447568402784521
H 0.6370967736182099 -0.9726584533588292 1.2403492630675557
H -0.6841460456689865 -2.4231980109801414 -0.24075580932850754
H -0.3287308546566915 -1.4066838973377924 -1.6364249236999089
H -2.5340340984614356 -0.7461632740547998 -0.158825744510341
H -0.1588806927215959 2.23685957682088 0.7154025510566353
H 0.5923082758845551 0.7976398957122824 -1.1976705064981592