16

C 1.5485889315381574 -0.29203097158034874 0.38988427533619874
N 0.8568146012168539 -1.5253106538230574 -0.031040799633282434
C -0.21190110483268632 -0.7362756978308593 -0.673200756356538
C -1.3930461175629363 -0.35596725391097744 0.16101780902113957
C -1.3561575953143867 0.9156898575503314 0.5562219397257225
C -0.1585829698934191 1.6475097456208854 0.030884898480589545
C 0.6866465287428848 0.5333763575670697 -0.5887778621492953
H 2.6251218760647643 -0.3167069057225962 0.20168357759714237
H 1.3750873403143695 -0.006938207949947345 1.436318815471992
H 0.5419923691440477 -2.1177420952138846 0.7323681736629836
H -0.4898802668376291 -1.1197309688726618 -1.6613953015744178
H -2.1814583821579325 -1.0612824492293629 0.41197151924872744
H -2.110631399960918 1.3887331938400722 1.1715073504111613
H 0.3837415882999054 2.1899794498510308 0.8195003467354667
H -0.44615059738213675 2.398052824743675 -0.7176926510095788
H 1.2107656939683595 0.8090554784926896 -1.4948334710573283