17

C -1.1950135789804217 -0.7195958941629068 -0.5174934395824824
N -1.1882823645791674 0.7639550330984242 -0.4972820237770515
C -0.021679692192997778 1.0961050072157517 0.32457138831232774
C 1.2157087153464798 0.730015885318622 -0.5125778699658076
N 1.207416613483864 -0.7596381571748586 -0.5025477466621749
C 0.03386563631085907 -1.0919619810407073 0.31295918460963795
C 0.0018029940503925326 -0.0030926710389110176 1.389849238152548
H -1.0932558330139572 -1.1069469424605394 -1.5400364946121075
H -2.112977568740812 -1.1341293527970753 -0.0784603900522828
H -2.0290322857379572 1.094858604314627 -0.040875798490313794
H -0.042190263946750926 2.134991142689425 0.6585838360804314
H 2.1280155799267084 1.1349008590132392 -0.06617998800799432
H 1.1154868329343937 1.1196061135112851 -1.5284868471577622
H 2.0365622288208227 -1.095834760648005 -0.0403432677924856
H 0.05305760745219656 -2.1343939805252967 0.64477204709768
H 0.9032815713514198 -0.009815811152707084 2.016105163008501
H -0.8866023628888585 -0.003097591247547691 2.0151150143907115