17

C -1.1815381409237058 -0.0009589444888366041 0.9911593601105274
C -0.6506297382674677 -1.0221461450442513 -0.027510390902595647
C 0.845097314204136 -1.2318146362783313 0.20806136998052116
N 1.6108301352599028 -0.006465509343183939 0.03015580949098893
C 0.8513423573104909 1.2316090033847165 0.21896776318610117
C -0.6481123081792746 1.0155336895693587 -0.01888084779868127
N -0.8869635830591802 -0.0009715262932287797 -1.074334115834125
H -0.7432622503993667 0.0007660958178479084 1.988477967500008
H -2.270076840911996 -0.000921038863106263 1.0428219193181307
H -1.1887365802924037 -1.9576087349496822 -0.1579027288211452
H 1.2429242129241758 -1.983686683685444 -0.4720395845541068
H 0.9938749088068096 -1.626598445267101 1.2241057792131746
H 2.042025509127712 0.002098234157317953 -0.8828414968799342
H 1.2446872412444758 1.9897796826384468 -0.4719760684029789
H 0.9984259393361433 1.6206991033746547 1.2316628822257534
H -1.1774044594120339 1.9681844091238043 -0.15192374743788803
H -0.18858666875427937 -7.697641760716053e-05 -1.8109764998071878