15

C 1.168974030350977 1.2168328535816864 -0.16085319278622634
N -0.2130330403855341 1.5171310616758562 0.12214789613566734
C -1.3360122575129834 0.7404066018049068 0.0015549507748631836
N -1.5357983944140357 -0.5088953571030038 -0.04506402687383022
C -0.553368890099059 -1.5426146833520482 0.057523767594350114
C 0.9151653757461773 -1.3073616413202673 0.06927236686784684
C 1.616930426018285 -0.1882925568650364 -0.013314593009208429
H 1.7802456561744622 1.843038848718534 0.49885575656050135
H 1.4146653108127738 1.5319263690587266 -1.187900616896931
H -0.4203180806626406 2.5014247307073414 0.07207817357016519
H -2.225307599845303 1.3648995232060697 -0.03107708322242239
H -0.7533860576498868 -2.259456895479899 -0.7598690701745315
H -0.798841648772618 -2.1241719173502176 0.9588070160872428
H 1.4816019021647278 -2.2376822855137815 0.1500659323585573
H 2.701325996981556 -0.28036676703659824 -0.009338117894964644