15

C 1.3221405543124156 0.23443219045075214 0.484457435471206
C 2.652366138449109 -0.0911310305079252 -0.10863851228996539
C 3.456583673946657 0.9074659665875947 -0.8929034742419623
C 4.017688031062104 0.37525968286898115 0.39692239538793783
N 4.936413182452377 -0.7242294831037885 0.30666672548892826
C 4.2711320418926135 -1.6878179014221397 -0.21411497827990306
N 2.924854021131875 -1.4628936961258812 -0.40354625106876657
H 1.2856482580959452 1.2786789168967854 0.7991705128226226
H 1.1164643465871527 -0.395263684776042 1.3581895910520314
H 0.5126181545839709 0.08997509349068528 -0.24177526509361463
H 3.0963543689312476 1.927808008095886 -0.8831049266928215
H 3.9340100899725203 0.5917662819985654 -1.8199198641556449
H 4.1343151036508425 1.0513781814637773 1.2364075325176827
H 4.695928239668097 -2.6492336532397878 -0.46406871859941823
H 2.3863503261962093 -1.9848722545393978 -1.0737721453954814