18

C 1.4803243606172558 0.5010873898337086 -0.17202401902650563
C 2.8378182704573747 -0.07196723578773573 0.06193314308230715
C 2.9939111751574283 -1.5660609118681532 0.27011111884422995
C 4.50272238770658 -1.814037467585102 0.13325001187389685
C 5.011832505980435 -0.7276199435114354 -0.8266676270096294
C 4.061880874869917 0.41568679725891416 -0.6012925798220647
N 3.830499900567084 0.6881943216991485 0.8256226765987871
H 0.9692623413149736 -0.011281128829020787 -0.9864630396535247
H 1.538028889053659 1.5705997945055046 -0.41697330932742127
H 0.8513033898723211 0.40018781682440546 0.7288841798361742
H 2.4378010639652294 -2.089164055988022 -0.515025178293381
H 2.604677348193816 -1.8953372035708271 1.2353648487948004
H 4.7288675777021 -2.8256361948875117 -0.2164684060061693
H 4.984491173638015 -1.6880941106812473 1.1057028421525918
H 4.924103279746516 -1.0609708597984482 -1.8764317909441695
H 6.050614216173876 -0.46709566636366845 -0.6479534976965224
H 4.0301109079561295 1.250578011569917 -1.2908652928843347
H 3.5029160901812206 1.6465072168248187 0.9414038959493813