18

C 1.4215054272881626 -0.18503446786720468 -0.35167966487651237
C 2.8206234609073184 0.07898287572874693 0.11480327649568503
C 3.66264261182765 -1.0084285403234132 0.6617440912871386
N 3.914035699978084 -0.49224958764057 -0.6776756640517749
C 4.998262651016678 0.5042380642531745 -0.7406671366586292
C 4.342101851106477 1.8515400783937281 -0.4206064351718371
C 3.2034135288679066 1.4949707843201254 0.5285067987894293
H 1.326414857633516 -1.2019915178470133 -0.7346777692730168
H 1.1433663422234959 0.5058085402053254 -1.1468026112898333
H 0.7009390708746683 -0.05445833618536557 0.47582658364496183
H 3.2873802132540164 -2.0325456214285165 0.7022032344854672
H 4.368411329423158 -0.7573435842542134 1.4441565108183467
H 5.440538653738498 0.48596748844614673 -1.7351657496836226
H 5.788141067604817 0.25746609143632015 -0.014660760530527565
H 3.9344928318845525 2.285191854159342 -1.3398732540421296
H 5.054760749031837 2.575018182214028 -0.0002994632881982741
H 2.354896746779457 2.170760479840537 0.428997333601672
H 3.5193632999703723 1.5293653031025551 1.5756309841039335