16

C 0.9924653406821142 0.16373749893632966 -0.459676471903659
C 2.2481828780850917 0.03208281978848776 0.34795754525564754
C 2.7065201062262623 -1.2750113091417654 1.0392753801545935
C 4.051151266989892 -0.5026778829678216 0.9502754860681594
N 3.588431109655444 0.06869559480936453 -0.37302328841097293
C 3.757892769741262 0.6799654781835738 1.8572719532641644
C 2.5469664342083043 1.0470220543508608 1.458058320154186
H 0.9079719412203398 -0.6346968115528323 -1.205753719102728
H 0.9697405061281646 1.1251093036157231 -0.981673235592146
H 0.10737526914113713 0.1147044297128821 0.18534959629301082
H 2.663979890380042 -2.1436654800906467 0.3715018113120858
H 2.311075336652667 -1.5177591383957256 2.033641532558797
H 5.02809272784063 -0.9856809146455247 0.9819513392891596
H 3.570342786864636 -0.7009981820687231 -1.047810398650622
H 4.410910508703366 1.1037281714542795 2.6106052505728514
H 1.9088566584396294 1.8583972906658157 1.7756651189716124