18

C 0.9430716972053406 -0.17236129015458893 -0.04371659412218274
C 2.4350580743310326 -0.004186321120201758 -0.014908838099223751
C 3.3952013674921084 -0.6241067221089759 -1.0526368715341599
N 4.476732941096106 -0.4639928463778282 -0.012361898392490033
C 3.369519569068707 -0.731834708694676 0.979258719620554
C 4.523248096222908 1.0142902888686391 0.06830883072959003
C 3.011734536120234 1.4098823375607972 0.06439431218541533
H 0.6611252020424639 -1.2228199760768448 -0.1024658433859786
H 0.5023027175905397 0.33795028262002563 -0.8985289037629308
H 0.4886301594104535 0.24307499669726218 0.8576246763426549
H 3.5784166492345038 -0.09765973661803165 -1.9864505293935724
H 3.2077145506277476 -1.6815869302324997 -1.2309468131519172
H 3.531133157920834 -0.30448865857847573 1.9719728936824787
H 3.1805227058014496 -1.808444380396611 1.0433781327501062
H 5.069937246298123 1.4093949901212688 -0.7885177896244188
H 5.040742755060385 1.3195030694723464 0.9741146773569666
H 2.732608979526242 2.0210122247912605 -0.7856459225400894
H 2.7106691905369837 1.9324049486038315 0.9835909484527637