18

C 1.0646991481345491 0.029443495520537998 -0.1111800439422724
C 2.565621429463656 0.14145011509950814 -0.043360653687377584
C 3.5170135773983535 -0.4936950859946431 -1.0947874139660194
C 4.55168010225866 -0.25369909905602506 0.02587907854894441
C 3.4263179202656517 -0.6097799336983104 1.0091976513503458
N 4.607964405349384 1.2045093946016256 0.16493743382876508
C 3.1658230013026465 1.543045251227065 0.06524317129205025
H 0.747759405583435 -1.0113947103214735 -0.16555030062749765
H 0.6721073564432709 0.5528488429613526 -0.9970796380404242
H 0.5957458682773926 0.4765250928833892 0.7727327541179716
H 3.659163567930731 0.03646822004920866 -2.0523086319195323
H 3.2964202918032317 -1.5459485759920506 -1.2714046892796327
H 5.519500210064564 -0.7357245712804483 0.050464103093260375
H 3.488636101715055 -0.1870271122548233 2.009587797200696
H 3.198278738320468 -1.6711481378354094 1.0321351817499798
H 5.1180526729796325 1.6083137012902267 -0.6087361034616573
H 2.9386569650115586 2.165871283387015 -0.8032227318838748
H 2.820276665494395 2.064748054765688 0.9637987862855377