17

C 1.4651941124277286 0.34629200441142305 -0.294141702761325
C 2.8556374959770916 -0.01959050964969965 0.09228926072125918
C 3.1697177598248483 -1.4235193298953894 0.6097461802267614
N 4.38389829503776 -1.8750082297565855 -0.07232658808542561
C 5.106540107130587 -0.667881888284574 -0.5174572853841498
C 4.079658409708505 0.44585034852084 -0.5963819691055147
N 3.7310557356872454 0.978345857006906 0.7229684669776706
H 1.057935043453154 -0.3617900913413471 -1.0206806756796158
H 1.429316867034524 1.3494060905082226 -0.7393159130098493
H 0.7970175534826368 0.34991143477114933 0.5773081133226746
H 2.348927843836558 -2.1123185586855833 0.4250650089700892
H 3.343314077751918 -1.3775536657733136 1.6898671256001323
H 4.104888241277008 -2.3967472762366597 -0.8952813528772978
H 5.591433985137883 -0.8585040852284987 -1.481501522925868
H 5.874429987027209 -0.40497074738613376 0.20696649195754138
H 4.030821285128403 1.1006287193767523 -1.4579777973198838
H 3.314641702231456 1.9088136970027447 0.616807913245752