18

C 1.1528250463985645 0.031330376417250005 0.11889977126945933
C 2.651612239730648 0.03413179518413742 0.005613503544176449
C 3.274821408641365 -0.9609139183141657 -1.0064451796008955
C 4.775670508604042 -0.7402166738842061 -0.7900597275242015
C 4.771849834161703 0.80916378862465 -0.803541542644081
C 3.265829575867594 1.017175049414975 -1.0125074825907916
N 2.90394888476482 0.021852961945320905 -2.0513233309998173
H 0.8035006695487268 -0.8576665890749466 0.665208280351378
H 0.6915776887006982 0.01701607892829768 -0.8728664712324271
H 0.7976871993261541 0.906986676481018 0.6559101314878497
H 3.1270610424652614 0.03470094024040073 0.9944855422660502
H 2.915522956704741 -1.9870682800937631 -1.1123215641657471
H 5.374895996252337 -1.1732884599766369 -1.6056604250850848
H 5.140949701788844 -1.1692362620617684 0.14436155674358503
H 5.363315354038513 1.2386321972892897 -1.620644781258104
H 5.1349910308920474 1.2417812662555403 0.13654782410442415
H 2.8958794314382823 2.035293633501019 -1.1322454584071169
H 3.5449828041531344 0.021481688120383712 -2.849627229782356