15

C 0.9857870614514987 -0.14343895616655217 -0.3304392830463049
C 2.328194336904733 0.08594443159992525 0.2946970293899407
C 3.408063832671548 0.8718257443995053 -0.32586293687675644
C 3.356135935206484 1.1346985135194978 -1.8231051982045046
N 3.3896858255652678 -0.17976101979799672 -2.4445838620545883
C 3.4732621753671795 -1.0356370872949476 -1.5170573531026195
N 3.564981411491836 -0.5918494188834413 -0.1689382747508869
H 0.3150951407648533 0.6678227152031126 -0.045249025653486465
H 0.5493663422791977 -1.0800866799576723 0.018488783023943745
H 1.032843444665075 -0.17248658142933776 -1.4173871657347512
H 2.303877828684359 0.10206842365654271 1.3849601978936807
H 4.045286648435055 1.4869236706132538 0.2960188357159259
H 4.222330696648309 1.717699433104653 -2.1463238670892157
H 2.4624767487120867 1.6815373814589707 -2.1537873762611492
H 3.5171144480852456 -2.0970207839718773 -1.6984121567700687