18

C 0.8049407041979186 0.19508976636902817 -0.04757008111282874
C 2.300915788294398 0.11113476833535281 0.1728637930519056
C 3.0972269914414046 -0.7613306578758945 -0.7600478751291534
C 3.1877088336781316 0.7286473752779259 -0.8639699998035374
C 2.790613693954588 0.1718584718057988 1.5830095976393517
C 2.0201610747244314 0.7761393490380627 2.683724886608168
N 2.2306407284196728 -0.6685324053941305 2.63553140376375
H 0.5815160778934302 0.03164204873203448 -1.105292862357901
H 0.4168963153046159 1.1678013775930278 0.22893689905477954
H 0.2631904264730289 -0.5714617833403317 0.5168003464353352
H 2.563566197462591 -1.2960047601955118 -1.5354951290880063
H 3.9428789110861993 -1.2897962419157043 -0.3458318853890921
H 2.7099783563690556 1.2155837685101276 -1.7047662471578469
H 4.095151846024745 1.2094315385790493 -0.5326719748838578
H 3.8776219274772625 0.2456508567556571 1.6451515876209108
H 1.0270998273131495 1.1558113829844527 2.4582137713468497
H 2.5249085090443826 1.2955864253934923 3.485136103197677
H 1.3935897992757724 -1.13202715137654 2.3048458363613658