20

C 0.7507681936873928 0.16404680423565812 -0.6656046622719052
C 2.1879283647206265 -0.033343240747010734 -0.2546438525943308
C 3.0061982682576045 -1.119555908541137 -0.8758964830317423
C 3.3067806783471343 0.31675678907557997 -1.1788624474193556
C 4.569732972098174 0.9532542956182388 -0.6538051473162633
C 4.458229867875259 2.4568360959922897 -0.5176834353007327
N 5.717467282023006 3.025575679646801 -0.06098399842416128
H 0.07885675517383785 -0.5033480123688064 -0.13193223768077644
H 0.6291304239992801 -0.023831598061474956 -1.732617307711149
H 0.42752079327784226 1.188976430952675 -0.47406454691915845
H 2.3830607864519764 0.1412757175422639 0.797587816531974
H 2.5382099516214263 -1.7236619234055879 -1.6569462729148214
H 3.7052059652499585 -1.6638384802813062 -0.2541426496375338
H 3.0044180735677917 0.6627199505790329 -2.162335819396889
H 5.411160335829992 0.7143772891725616 -1.3141119277896376
H 4.806886637174486 0.5117217676777254 0.3227446987981637
H 3.5931497642882784 2.691796457957084 0.12211655062142028
H 4.2426004174208956 2.89374721193246 -1.503802320204018
H 5.929664121862781 2.690535089499446 0.8709632903852653
H 5.649421527905076 4.0407235375300585 -0.00031492130059246554