16

C 0.7549226882505142 0.4132867717256338 -0.3087302762949892
C 2.2279922644547434 0.3632091655439526 -0.05202561196959773
C 3.0735436028324505 -0.7174759877283037 -0.6477249254705019
C 3.1999837706106935 0.6960365994773052 -1.1412159313690287
C 4.46126604888713 1.4730618238837714 -0.8283212477444841
C 4.2378623561205595 2.9084216304391703 -0.8024611540216131
N 4.054381833621627 4.048163678956846 -0.7935532784583139
H 0.20520023926878964 -0.24046151732708448 0.372452681303706
H 0.5264405454956995 0.08019326904119238 -1.329001047359286
H 0.3597873343113419 1.4241320525037315 -0.19645586178001806
H 2.532113742921073 0.6901185562616705 0.94689551015206
H 2.598070517080727 -1.435024779448775 -1.3021627804026825
H 3.8943303088609347 -1.1258921638185717 -0.06301929772248695
H 2.7725610408110897 0.9179928837851749 -2.1110647744336863
H 5.246291800722355 1.259142765341511 -1.5594333438199734
H 4.858476108496202 1.1694322259283692 0.1476634473331394