17

C 0.889508374600122 -0.015873152418203387 -0.2169170184395765
C 2.375401226502733 -0.04829201854161498 -0.04732637132126982
C 3.241490687703715 -0.8229248136520962 -0.9929876261155279
C 3.2495298934309913 0.6889125495848231 -1.0071353533365612
C 4.480481660710059 1.4177055368742386 -0.580501205995005
N 5.224592403259893 1.8785818958393417 -1.629565862361028
N 4.868863233002523 1.6430702710836294 0.6105337198207981
H 0.4157727553285466 -0.8850187527349866 0.2544975613017142
H 0.6189753430746813 -0.03422339699354352 -1.2775940641495853
H 0.4533457351335697 0.8824032439296099 0.22824646767717022
H 2.7177637424489642 -0.05606627323481193 0.983533152968582
H 2.768466882398726 -1.3311111032777194 -1.822213627055537
H 4.117002824100953 -1.312421113975686 -0.5853629522994253
H 2.745122771152319 1.1494812749875003 -1.847585332512987
H 5.169281299879541 1.3809328513197738 -2.5030573031188665
H 6.1425162873984585 2.213184490000801 -1.3789833702549248
H 4.17282003034014 1.334177548213741 1.2840031951549022