18

C 0.7790065126086445 -0.7028052574703493 -0.48615461690710976
C 2.0458986063677926 -0.16212313534038844 0.121060138812597
C 3.2343130984004738 0.041743350389364296 -0.7533753631358959
C 2.4571348208663304 1.2350654596990576 -0.25127879673193676
N 2.2499484486223325 -0.7075598026148121 1.4411106095769606
C 3.163925366135712 -0.08263291565625752 2.358791793208858
C 1.6971813847278105 0.021060942640440363 2.56431547933842
H 0.8220051891808473 -1.8004342840701848 -0.5303074244010572
H 0.6379948755195478 -0.32500130776802305 -1.5040851703107971
H -0.08898302629046925 -0.42098659666331817 0.10372815570500653
H 3.1530410549765633 -0.23276844185877874 -1.7942319556814996
H 4.206450536297865 -0.14008983268280278 -0.30831816215192365
H 2.9435229754232615 1.8620992205920242 0.48971020394696485
H 1.8406333272980249 1.7785207624185053 -0.9477010213456416
H 3.6924276631966193 0.8235914298526384 2.0660162063642846
H 3.7563542645304886 -0.7661632581613036 2.9664129931783942
H 1.257711183509928 0.9887967894465175 2.3544883122359486
H 1.1986391146453645 -0.566867131853072 3.321787573820679