17

C 0.7925409719959181 -0.14925220475481374 -0.09809649741185092
C 2.2877896696731783 -0.20362289420679697 0.0488487262282912
C 3.13467178744955 -0.8808366359592031 -0.9847230335098773
C 3.169716567098265 0.6046306346474648 -0.8340123240501999
N 4.3429246496881495 1.1752772072516042 -0.27531312747441317
N 4.173199826481463 2.3137057766609 0.42276460472118604
C 5.164422476911141 3.096806948152422 0.5639113754332051
H 0.3156898057037071 -1.0612333826842872 0.26618191963570886
H 0.5114632442715482 -0.03379307864280653 -1.1515746064465093
H 0.36974050555467625 0.7019193130672137 0.45435893910166725
H 2.6482008838236073 -0.2944555611332216 1.0679124741546016
H 2.6521071064191424 -1.2958705873390368 -1.8615518115961593
H 4.012704111548015 -1.4267606794562226 -0.6427373567255631
H 2.666274321058199 1.1889158443580992 -1.606943831153357
H 5.158800178994327 1.1596404227315225 -0.8882473189320261
H 5.024875758189781 3.983478713079891 1.1714676266118724
H 6.151033933029487 2.9196867281559773 0.11482531401136413