18

C 1.1139678370443913 0.009973784158661562 -0.023861834487835566
C 2.620304062846085 -0.022440391208537275 0.09429830656572658
C 3.2065143500681406 -1.1970930844076986 0.9410606332102276
C 4.017064406986911 -0.3437208397527489 1.9177255950112173
C 4.594305011142358 0.7148950500798914 0.9677694703584847
N 3.168237475888223 1.1772674019911924 0.7849699488261204
C 3.0156157302659765 0.7653670754511905 2.2269721282952544
H 0.7516295420169672 -0.8708724089576286 -0.5712037377321725
H 0.7905102905563951 0.9088363341686655 -0.5677946606068426
H 0.6195061454816275 0.022162269643059184 0.9516359982030536
H 3.048476176943148 -0.024341225787017504 -0.914847526134068
H 3.8168349003803512 -1.875249360776321 0.35298738203355773
H 2.426845107109418 -1.7791696026434214 1.440504530210223
H 4.612087961479984 -0.8623316576712368 2.67867313950949
H 5.0861928846760796 0.40210313740352777 0.04464803299451636
H 5.172187790240731 1.4942603253130233 1.4675065275766899
H 1.9966704331779093 0.5001714379867918 2.536078293400573
H 3.4051819842983364 1.5507678552180328 2.871058105309873