18

C 0.9025785052999916 0.10935048940271065 -0.15799986777576683
C 2.4130470237293147 -0.10602851264269975 -0.08486592339244246
C 2.8625469199842764 -1.5500915509165112 -0.382609220026169
C 3.520852146524488 -1.4998196793430605 -1.7409148402488606
C 2.7780080721854485 -0.8689298982987307 -2.8546324032499113
N 3.783509037390321 -0.11355078425261318 -2.126859794798027
C 3.2331599106446673 0.7477890353926758 -1.0775435179330988
H 0.3901770160708509 -0.48830697004343354 0.5898367156070474
H 0.4858545031732281 -0.1612570644878991 -1.130995643741434
H 0.657713011993277 1.15425513583779 0.027803130885065738
H 2.713559254510392 0.15649917574936154 0.9361654472966977
H 2.0232938825355475 -2.25055384453794 -0.3560498172493953
H 3.589203391117583 -1.8960100850557577 0.3535555078896176
H 4.29869295368136 -2.2164063029356997 -1.9669142209678339
H 1.7267245560833542 -0.6328431381355643 -2.695817018421847
H 3.037437266472062 -1.108278912357105 -3.8819214438413647
H 4.082999116424849 1.205708222260845 -0.5681411396769931
H 2.6469897528947883 1.5488209605323362 -1.5154573762664332