18

C 0.9834642989688529 0.10672772930620705 0.43114675590041845
C 2.4377967727094814 -0.00829922843271803 -0.016595100176853023
C 2.7310969124128177 -1.4165798731090937 -0.5701170102621164
C 2.570458766124831 -1.3074227470348874 -2.0709641207710585
N 3.747344607672506 -0.7172033926021264 -2.715846811837087
C 2.5758799293771486 0.12477098763741083 -2.4473023619390473
C 2.728673721869034 0.9623570185735426 -1.1870472993670917
H 0.7572232209620487 -0.5953403281013843 1.2344470742147922
H 0.3075045129259715 -0.11103261971412108 -0.40654970711316246
H 0.7523881313003862 1.1140285789099689 0.7866506913631758
H 3.0784388583836355 0.2215130564529292 0.8396348150562497
H 2.046239461810606 -2.1538691293805994 -0.14545333437259164
H 3.744868528842263 -1.7370101218625689 -0.3281950097303554
H 2.00021317338199 -2.0418729918880985 -2.6161436514436587
H 3.760054739275556 -0.9725820280781085 -3.7040041957139467
H 1.9867954987795817 0.48361610781126213 -3.277295113893594
H 2.0372989123682794 1.8090429927761602 -1.1872674716366798
H 3.7436889250117837 1.3537850004158911 -1.1450419607619735