16

C 1.4196664402307273 0.05300977566014102 1.0658096880990875
C 2.321737455896409 0.022913306357723675 0.08746090796586943
C 2.915922438364074 -1.2340679140055408 -0.518543287585726
C 4.23090968817859 -0.7635270562050596 -1.0883159434552905
N 5.040246691133623 -0.012519781064031791 -0.12724497360676784
C 4.239520348884683 0.7142701438286381 -1.1301384629410796
C 2.943369317230584 1.225999485882288 -0.5697786118730374
H 1.036506242957945 -0.8641323651350861 1.506844216923027
H 1.0495531774946267 0.990330931325652 1.4657055932193708
H 2.277474812491817 -1.6101843261660496 -1.3222967394989849
H 3.0246713181919507 -2.0320198328457426 0.21821160220265648
H 4.729765248338019 -1.355384298189183 -1.8558546711487216
H 6.008583893624529 -0.02483128556507458 -0.4165033570984616
H 4.753669596070222 1.2519485636434733 -1.9094668271108646
H 2.311633080410538 1.5773516698074512 -1.3974890970608684
H 3.0645443227166327 2.054756844984276 0.13147553715462118