16

C 1.0037354795689735 -0.0738004272443184 0.18229081437123618
C 2.4721265049588173 -0.052548111165802214 -0.05198118329030067
C 3.263119132860758 1.0142401338047187 -0.17654881834749686
C 4.695053397321768 0.6362794341976644 -0.2904700486567836
N 5.261358569643651 -0.0728005981214773 0.8591034211572668
C 4.71586630423817 -0.8492461313924998 -0.24344004072620826
C 3.2818129413021073 -1.324394703616618 -0.1616666929932777
H 0.5896979542395607 0.9372518431036277 0.1880143148315538
H 0.7641629624429639 -0.5540571479408777 1.1428359165448312
H 0.49072833514565095 -0.6543071892384312 -0.5918560925088547
H 2.9293817938625697 2.0474475819587483 -0.14656526976233697
H 5.396248997000275 1.2375021684474607 -0.8545519116629356
H 4.606022886181548 -0.04544400732410639 1.6354030594624254
H 5.450467470207768 -1.4437816337468616 -0.7900841043336752
H 3.1073413187704593 -1.99730439394 0.682743203081026
H 3.000119458956268 -1.880817650767892 -1.0666126703774463