20

C 0.9280757974462909 -0.03474732278673694 -0.03534796876296224
C 2.432747048029527 -0.0003192182387109898 -0.014086601314545727
C 3.157542951829933 1.1029210348186187 0.7835380889291147
C 4.216753077823106 0.07265523459843813 1.1930608109586756
C 3.2127441699918764 -1.0355801678359597 0.8145651312046155
C 3.7402674812003176 -2.284821646983443 0.14424587852916385
N 2.648050911604654 -3.137521903323865 -0.30192167600101627
H 0.5116448117717763 0.8295210019080018 -0.5574245340501295
H 0.5254630741999533 -0.028291253295172288 0.9838220221504195
H 0.5704984958849497 -0.9352094392317322 -0.5292900140787026
H 2.8193804711173827 -0.011891095906824106 -1.043171601487134
H 2.5492919507650664 1.4202163450631815 1.6467671899752927
H 3.488235048448856 1.9953147492718883 0.25141040586514796
H 4.590875541656074 0.09658994396329 2.222298072925203
H 5.071339478020427 0.07781940605458891 0.5121454907020533
H 2.616773621724269 -1.3161104106976114 1.697222454400215
H 4.449671100672564 -2.784673677451805 0.8220533257031541
H 4.311753779097063 -1.992460487020868 -0.7392331325895085
H 2.1230748297345436 -3.481125717777379 0.5007517587565581
H 2.9954083950741253 -3.9478102720526613 -0.7923095358516986