16

C 0.9746442800534507 0.05790335740972485 0.038726180044458734
C 2.4913738197170594 0.06099896385964863 0.0034851357043265995
C 3.2443766183556777 1.133862208081145 0.8386744961566203
C 4.260408099511715 0.06395948535217362 1.2600212320538742
C 3.2407962928220124 -1.0137223166461555 0.8372304390347995
C 2.9645574211283745 0.06242265667728668 -1.3717593420365712
N 3.332133511062694 0.05851061295227021 -2.4604323027963964
H 0.6344834646968281 0.05554117686478098 1.0774728167130536
H 0.5697116626960017 -0.8264405042129732 -0.4570267553520793
H 0.5675455011722019 0.9486481258590979 -0.44953250029305847
H 2.614982576115438 1.4529727108246553 1.6759962839865918
H 3.6083990389812888 2.0105001463074608 0.30712577375968436
H 4.583536664919599 0.05747364247407981 2.301641928077524
H 5.141005780385798 0.060983472239719415 0.6137738565699519
H 2.6122996422229057 -1.3382709961097023 1.666536537129389
H 3.6054125698959973 -1.8922372653189834 0.30614961518385103