20

C 1.0366923863804935 0.25001431890578935 -0.0372250449503596
C 2.535663754971489 0.14098721896583116 -0.034886114096716624
C 3.299153268635235 -0.761490904274472 -0.9752256655774071
C 2.61920859763454 -1.6376652867907133 -1.9863988092965237
C 3.36881127710479 0.7259448910896514 -1.1396156315068693
C 4.6340296771048 1.4788573083692964 -0.833850991984526
N 4.340142048437047 2.834160670332346 -0.37867993540128014
H 0.5808592939947568 -0.5577093393152388 0.5463322010139464
H 0.6258530102511056 0.1946449082284921 -1.0564751059847155
H 0.7189108505393557 1.1999118775782256 0.3867006082665836
H 2.9775920669769143 0.2411266204729768 0.9473036152665902
H 4.186576872262924 -1.214916646792471 -0.5334333719587029
H 1.7501105387162672 -1.152435438619907 -2.4369033801146887
H 2.2713551011113773 -2.5802858633578456 -1.5425869584526424
H 3.3014131975806817 -1.8940929976760594 -2.805488613805859
H 2.801048988201632 1.1212092185263682 -1.9799625992836376
H 5.296744220617457 1.4403975117771814 -1.7075970793889448
H 5.1582255888971735 0.9547071681513182 -0.021439088958595053
H 3.8466537679468806 3.3435901253610165 -1.1092936798304582
H 5.198561132739433 3.3419504857532387 -0.21708163651319856