20

C 0.523699297170824 0.02486146028389687 -0.8536015729964326
C 1.8810893708077407 0.45060340706925395 -0.37928961620615403
C 3.153658244819422 -0.2985242548469058 -0.7413740469801282
C 3.158759547578508 -1.5266168117462793 -1.5988502218929004
C 2.914958769173077 1.0876864423668098 -1.28036134363888
C 2.630721641563429 1.3076588207456277 -2.744905808207979
N 3.7013534586017114 2.111582168186058 -0.6338664649788324
H 0.09749914673844669 -0.7264193366920911 -0.18092665984507023
H 0.5364600301633978 -0.41410769185304563 -1.8497476495564813
H -0.16478853337338162 0.8688996391901883 -0.8848319546193205
H 1.8900096536624942 0.8582461775000826 0.6215066770140213
H 3.8865653771176802 -0.31729401875908186 0.056724077915232506
H 2.393768285755674 -1.5121336559300946 -2.383108887876832
H 2.9861065659893518 -2.421717602285487 -0.9999022251883752
H 4.124513657709306 -1.6552631342795128 -2.0901330284971995
H 2.0336962195416923 0.5095073887536221 -3.1945376643747943
H 3.5623161844764604 1.3761484396775072 -3.3042608008558285
H 2.08305215934078 2.2470782116728327 -2.8940136553940325
H 4.599472723769043 2.2083418858178034 -1.0840346076701182
H 3.234455408135856 3.011920299040004 -0.7024267790405746