16

C 0.9124000379970548 0.15203811989302415 0.04148854349771293
C 2.4104124744810425 0.05228313202624088 0.010493734205677393
C 3.1691730395753925 -0.7232143203747254 -1.0233257413101498
C 2.502180484617874 -1.4853785714769874 -2.126597334396552
C 3.1990240020167917 0.7908292511107666 -1.0564229237093081
C 4.395937297426811 1.492309393690986 -0.7182169504349913
N 5.36031011054636 2.0410233373270117 -0.43195137485331997
H 0.47990500774980765 -0.7033311356790598 0.5691511811246011
H 0.483057388786745 0.1879530548072701 -0.9596520978325318
H 0.5974537300887419 1.052501949150786 0.5674129618783512
H 2.8822829055818215 0.06649981611016834 0.9905107058594805
H 4.084702803775011 -1.1720982723905244 -0.6575938732221142
H 1.6116632692230453 -0.9819443057972481 -2.5017602477325953
H 2.20262890388108 -2.4814344831424786 -1.7929694855813134
H 3.1872950870759325 -1.6159898229379817 -2.9719714241067874
H 2.604413518696516 1.26535824201358 -1.838946236577188