16

C 0.9699601972321376 -0.044314383961509815 0.09031080508385833
C 2.4716669122713286 0.002893391565537993 0.1569594241968493
C 3.1812685689810283 1.0646803027556726 1.022939069703032
C 4.224756414470248 0.006262263938010729 1.408437240278475
C 3.2129385044146543 -1.077129439198951 0.9938833421498693
C 3.6887768323168246 -2.2671456170428663 0.324443304640786
N 4.077466621855651 -3.197730334533318 -0.23065517860992463
H 0.5805626304096633 0.8371745978069415 -0.43537336565204
H 0.5270113742339005 -0.05854493112639018 1.0896296405439285
H 0.6188819416913462 -0.9288408637559238 -0.4414541865104137
H 2.901459781166212 0.009793367190602819 -0.8494651178633587
H 2.5632877336890894 1.3397209994920356 1.8799190759506526
H 3.5324965031889546 1.964322903846357 0.5264944603180597
H 4.586531379925924 -0.023998117241934156 2.4373944193066426
H 5.088242900519333 0.012451179345004141 0.7346171061474984
H 2.590612606562278 -1.3757286382026312 1.8477559585174905