16

C 0.8415451748221434 0.1344256268277821 0.08699845881736021
C 2.3435531239614025 -0.019076783413844396 0.24018443923301966
C 3.0373529212075727 1.2933953698258993 0.5151931554109224
C 3.6119472544127618 1.269669068353243 1.7115485012120306
C 3.4396982383733707 -0.054016265324034085 2.3410715854999724
C 4.062062071321371 -1.1781867077508126 1.5822109754874807
N 2.651170703162725 -0.8773659796126123 1.3969933260692973
H 0.5927925022085707 0.7788152937552092 -0.7603972509418092
H 0.4158270663939454 0.577990712221927 0.9866163062400465
H 0.37880252046350443 -0.8382635384352576 -0.06869369331302018
H 2.7424364424601997 -0.490950622753743 -0.6594313102681247
H 3.0597598307500387 2.1091777186377474 -0.18968696220466774
H 4.148098122060794 2.0895675600123873 2.1862815900749752
H 3.230242837060324 -0.15747618615234832 3.3972711473548913
H 4.256478856307318 -2.119922343432789 2.0782132047493405
H 4.760974878397828 -0.905484968614851 0.792204266474315