16

C 0.9199271645627591 0.0386859639567784 -0.09769859559826334
C 2.3995044277028827 0.02325939776053296 -0.07702106928423263
C 3.2439410167092384 1.059004700121175 0.0382721718332524
C 4.628217300877548 0.5739386681242133 -0.008323054236188298
C 4.626829860831899 -0.7521667364714758 -0.14596318904390437
C 3.212338856148763 -1.250839658350019 -0.16833318849954879
N 2.936401150924666 -2.176201037130884 -1.249195757047438
H 0.523932368938137 1.054943408196391 -0.05914615273786752
H 0.5004138613056326 -0.5159706685501547 0.754002068765443
H 0.5231295536769835 -0.4397975967312325 -1.0050225177780323
H 2.9663944753184586 2.1048085901311584 0.14240348067025255
H 5.50343064777311 1.2071207256098644 0.06793976054711641
H 5.488717751681589 -1.4102134755941456 -0.22321239840791784
H 3.054172350669895 -1.801093027681458 0.7785625450315586
H 3.0696759913947114 -1.7022792589779783 -2.1389040010384743
H 1.9778205267848419 -2.4911955815101514 -1.2152574352151044