20

C 0.8899392355498177 -0.12506246855961795 0.050153978384902764
C 2.4035954627047773 -0.08586136492474639 -0.04466852904735042
C 2.8560624738185925 -0.024128778192622335 -1.4906895029040554
C 3.124163076962191 0.9798859957940408 0.8223903113225727
C 4.176586416562819 -0.08742750373187211 1.2032843831464681
C 3.1767708756353965 -1.1678710592848174 0.7807480983985245
N 3.7061551243832285 -2.3765138049597496 0.21692263265833694
H 0.4365496340451547 0.7511713065333963 -0.420829514425358
H 0.5595077470340802 -0.1669692647517126 1.0835680269714723
H 0.48618908889712165 -1.0120509086786345 -0.4658232163538225
H 2.4315399995495746 0.8578733852745859 -1.987846152267046
H 2.5206244500624964 -0.9136204361928366 -2.0499499672956283
H 3.9405029313872575 0.03829626470065612 -1.581318027781001
H 2.521204795455237 1.2764137057124636 1.6765621664007104
H 3.4812060539385197 1.8767411989114968 0.31080283323554936
H 4.5418823029971644 -0.10943905158548414 2.2293664474991264
H 5.038555862224903 -0.05879254241954544 0.5277097841597491
H 2.5600689606746996 -1.441085388887677 1.6394759133564383
H 4.236257586933753 -2.1936993275058985 -0.6251939405297989
H 2.969106824743105 -3.033361678943427 -0.02065968741486744