18

C 0.9913836830551651 -0.05731314843900448 0.0440606507292251
C 2.5007869363218562 -0.06161557786098012 -0.14101834117180248
C 3.063787435293939 -1.2779525006001682 -0.830977182078285
C 4.108989842252485 -0.9740065458596185 -1.5879468187623513
C 4.39899504214493 0.49736897152550763 -1.527966119551523
C 3.091595184003787 1.0961066667938972 -0.9839788448434902
N 2.1475641174539417 1.5040365816550088 -2.015071474999817
H 0.6785589522247646 -0.8869334941271974 0.6889565770262035
H 0.4735102994884756 -0.15341464046048128 -0.9107231673795061
H 0.6490156969906229 0.8662055875543352 0.5023228036189126
H 2.9564472876866463 -0.008497060674774664 0.8668162048970702
H 2.682165056570842 -2.2768865990621525 -0.6725734168672641
H 4.708309820092716 -1.6833022067061423 -2.151337204601241
H 4.67260448195224 0.9340129535305994 -2.5000390704578614
H 5.240921302579183 0.6958714958679976 -0.8523657381804377
H 3.2741999802042825 1.9702450178219473 -0.353386886459387
H 1.9892431577721863 0.7409922241388591 -2.6603889830302023
H 2.547849950602714 2.2654632125503444 -2.5549568170228603