18

C 1.0739014844922712 -0.06904798010304329 0.1054237418137209
C 2.589436611842 -0.12734898898290856 0.011417657656200238
C 3.048510499415938 -1.3488488933129337 -0.8074884005391401
C 3.430331093055445 -0.7717058166450885 -2.1376506974559666
C 3.46395732202479 0.5578020949992942 -2.109546168134294
C 3.1500965754777153 1.1072909418018746 -0.7502402532517923
N 4.346494899741388 1.7421748226177287 -0.21036747371305276
H 0.670348495160243 -0.9391809646366229 0.6254948113134073
H 0.6231155518550917 -0.034792148248125154 -0.8969343948800526
H 0.7423693375784606 0.8266064311811905 0.6388408516872996
H 3.002861736015955 -0.14433668903570765 1.0185996466993332
H 2.246803385296801 -2.088959153598438 -0.8959777621532462
H 3.8863041017403943 -1.8808841873306361 -0.3503679956013868
H 3.6652632196760333 -1.3833311798568118 -2.9997472032599064
H 3.745564914814804 1.192637882603762 -2.943323788574635
H 2.390252052177543 1.893322566469921 -0.8064748921016436
H 5.105012303813295 1.0767451602036198 -0.13748677968605394
H 4.1745240990289645 2.1010425624597304 0.7269627230261303