20

C 0.9359834540489141 0.09629968413610973 0.0064904163077826715
C 2.4491307317350137 0.11908656208383099 0.028758720193330093
C 3.191460106207491 1.164286378388499 0.885007209619153
C 4.2432552089927995 0.08969888979565985 1.2362483324317377
C 5.4874449679179795 0.1525277443138782 0.36870521537478124
C 3.2110100976537352 -0.9746601515577531 0.8150511839102157
N 3.6929696494579725 -2.189217958394524 0.21465081883082063
H 0.5318984579502929 0.9773509652223834 -0.4886989082204278
H 0.5339040771608566 0.07057762972551247 1.0153961003065974
H 0.5678703366793681 -0.7848029612992506 -0.5336291439627234
H 2.839910125586985 0.1523719034890147 -0.996424927274101
H 2.594165400275736 1.4545630767500912 1.752553369845205
H 3.5399969188822973 2.0635057884778902 0.39096262770027373
H 4.548697573890231 0.051120411525119785 2.2844566243445317
H 5.246202154750069 0.25195081179768947 -0.6944867268065416
H 6.09620165156804 -0.748780935038936 0.48674004318171427
H 6.1025876337234575 1.0171822970834843 0.6408736174179508
H 2.6197912331838284 -1.249206166204073 1.6896047122196465
H 4.136345730125786 -2.009220802792731 -0.6823320833333119
H 2.9442419511059446 -2.845983415883822 0.04603534536866239