14

C 1.0001136035099998 -0.11224117768729133 0.08111521955821914
C 2.4923981140051583 -0.04590359458189393 -0.015228698609873328
C 3.1605731521244818 1.1751916523825119 -0.05948493539309466
C 4.549989170011061 1.1884640647911444 -0.1588215349948975
C 5.219484884204262 -0.020789369663011304 -0.20045045526553962
C 4.468832977627741 -1.1810740569527158 -0.15300817853414503
N 3.1404696267392658 -1.2053034333450918 -0.06651403868444204
H 0.5490202245876079 0.8793265916145722 0.11217687189223916
H 0.7090938437875017 -0.6687154924491833 0.9829448518675238
H 0.5982103882362408 -0.6596949963529364 -0.773088550193981
H 2.607410461752375 2.109724467728577 -0.022808136911613684
H 5.091681301392073 2.1294460051125674 -0.19164579421242423
H 6.299655281459667 -0.06304813237891607 -0.27820650479301645
H 4.959456329507298 -2.151952352809174 -0.1873811334566052