20

C 1.169449919931212 -0.29751367872578033 0.3195000026439267
C 2.5996943266346433 -0.0003418149744780011 -0.13416688028780158
C 2.6266919454589726 0.33093427550724613 -1.6171292140890545
C 3.228943273469665 1.1220789643667595 0.7321558586132274
C 4.502411428646617 0.5241140805559267 1.3268637354844797
C 4.1668900802896225 -0.9556913371513374 1.3811826478839386
N 3.4962794019690073 -1.1554215366612972 0.10978505459133431
H 0.5285176468351227 0.5904773651429731 0.19456457463137664
H 1.1458334519995872 -0.5858501366781312 1.367931541154048
H 0.7335586316209788 -1.0996269975863473 -0.2729090243242405
H 1.9717545277971025 1.1849810907533835 -1.8440011598671435
H 3.6425020856030854 0.5712896064772186 -1.9401838752164824
H 2.278992155885944 -0.5244123338467793 -2.2149885383858456
H 2.538467200356964 1.4098056639132277 1.5235094525967416
H 3.4257463516581605 2.0140458036303936 0.1308740818737888
H 4.761735532877348 0.9390675323606931 2.296423899653972
H 5.3502286711336 0.6682516094143645 0.6523668589208306
H 3.522793241331306 -1.167754140129715 2.2582283820544875
H 5.043553531128347 -1.6028435674027255 1.4582783738708158
H 2.995361066533963 -2.0285945536033982 0.062284323972113184