18

C 1.0356243039328947 -0.010168236713269562 -0.4581157157645432
C 2.4509694073814776 -0.13032520454897853 0.09233090834160838
C 3.1285399603893382 -1.4226521699990837 -0.3482923552948952
C 3.658558407143469 -1.316864544425345 -1.7472709218604345
C 3.832652041943804 -0.15168496905716777 -2.3469104402862784
C 3.533480226783281 1.151872748879093 -1.6841737729548447
N 3.3432051696183964 0.9759504035197168 -0.2617572757401954
H 0.3960705202482841 -0.809795567732782 -0.06484281728190083
H 1.0322375839398585 -0.07669198601009496 -1.5522787104638853
H 0.5850189196265431 0.9480263881838394 -0.1737604184949918
H 2.387688425029674 -0.1318821150352015 1.1873747654828164
H 2.4218314750892156 -2.254246676398203 -0.2772937039634123
H 3.9521975222788415 -1.663835041063736 0.3422413062548399
H 3.9044596235452476 -2.233937124171147 -2.2610597894886317
H 4.20190074981811 -0.10914015091635423 -3.3741832843005968
H 2.6791526731912345 1.615974473853111 -2.1958646239416737
H 4.38011177799238 1.8369942041387526 -1.8306348901248055
H 2.9983501587926544 1.8392872208002709 0.1569224700516525