20

C 1.0506198726568694 0.009473598087981816 0.7189629117691172
C 2.3892818357041965 0.12007199698584357 0.031315376055195035
C 3.3347085121947395 1.224260864107282 0.5545831665727236
C 4.255915672949529 0.09647883159131282 1.082317997734301
C 4.2724771337111385 -0.03521468251127267 2.5944349018365807
C 5.665588315050969 0.10920999022856577 0.5342248161570573
N 3.399857921321785 -0.8990664864999793 0.3981437053403991
H 0.4008644652013389 0.8395345568736015 0.4352744913872789
H 1.1468202576974715 0.018398842750759366 1.806721176805096
H 0.5481945701183526 -0.9177402717182832 0.4312059558072
H 2.2346257395328104 0.1544910581539929 -1.0517570531106284
H 2.9005906043923515 1.872793660172093 1.3263330164952538
H 3.788692260833009 1.8441146516410123 -0.21086362674325257
H 4.835002666416883 0.7774039477247093 3.057282978220535
H 4.740303174869735 -0.9812625903312641 2.89536461971241
H 3.256548662007288 -0.02062993864694502 3.0072024607979984
H 6.231557638096092 0.9602806476673671 0.9330798363541751
H 5.649563652230595 0.18066694221663243 -0.5513647628981261
H 6.186277256418783 -0.811697568201652 0.80167213690848
H 3.0350864094756362 -1.6318160239645767 1.006576415893568