16

C 1.022207592937623 -0.08315973043597526 -0.06891805781573435
C 2.5041278149955484 0.020654985456936087 -0.055887695842963964
C 3.327894004658866 1.1183970768598457 -0.058115687222142734
C 4.6677706462193616 0.6518595778773798 -0.04507258011858178
C 4.629501039941628 -0.713177423688013 -0.0494680425663694
C 5.725949422017361 -1.726524360669956 -0.039931857071856376
N 3.3168145515397853 -1.0798004915638812 -0.05075620077102297
H 0.5767412207026723 0.9072713571656162 -0.06965245029065567
H 0.6378413035762689 -0.6154241981088671 0.8215044828050575
H 0.6497943928832891 -0.6133632596243279 -0.9530839316377051
H 2.99546247097854 2.1483407457845702 -0.05994033533932596
H 5.559879780815526 1.2544223923584696 -0.044791094691085456
H 6.694712945761118 -1.2191980563720957 -0.039651318316197726
H 5.691641794996332 -2.3690378739032187 -0.9236323949270415
H 5.6880181924716515 -2.364760242942533 0.8412281556173479
H 2.978645677334763 -2.0292263153484535 -0.05709236412582528