20

C 1.1798410461626936 0.023139134873818336 -0.11988628094256287
C 2.6841721365866325 0.09650746806344344 0.05116925881636816
C 3.1436958500549146 1.2706956922178754 0.9180369012614437
C 4.429515611394991 0.7748737315309603 1.5998838971558351
C 4.586338209549449 -0.657351478988878 1.1036094584447689
N 3.237415540698372 -1.0524515041330589 0.7499064760009001
C 3.192478006131888 -2.298952710835154 0.018738974186875583
H 0.8057447924324427 0.9452412226897566 -0.5683734797991519
H 0.6911465520200455 -0.12356140994058211 0.8508557255995798
H 0.8844278328358098 -0.8025578967395555 -0.7744086981469073
H 3.147143567455411 0.17786885676149247 -0.9480158540062228
H 2.3799194886713453 1.4992494208532636 1.6565402215498921
H 3.294319891429359 2.1688642026832925 0.31931386653636995
H 4.332785081241042 0.8091376661576895 2.68125314386371
H 5.304910095011647 1.3868889101685755 1.3375454708881769
H 5.006538756824782 -1.3331303500552978 1.8603803249297177
H 5.252784048391904 -0.6924003816262557 0.22145148815782242
H 3.6397692757398032 -3.092254205905388 0.6151272068381022
H 3.723365479110964 -2.2424609610419064 -0.9516117741601925
H 2.15439211911237 -2.5771851237235697 -0.17974931842749592