18

C 0.9396353016541996 0.17281891498864607 -0.008045440475945211
C 2.4251023387550443 0.05128354923294153 -0.07759385505567343
C 3.1472726028187092 -0.7172199408252735 -1.1504771375192109
C 2.4707523082028424 -1.4593189043904349 -2.2332326648963337
C 1.891665448506173 -0.9084361033257629 -3.2897968636078354
N 3.123632068931175 0.7217725760137453 -1.1501191457327133
C 4.363114930819554 1.3917245383954113 -0.8234306320425034
H 0.5181426931458856 -0.6031414264043649 0.646817943316592
H 0.4893917160193321 0.05557756724741768 -1.0001455868419085
H 0.6493893396446037 1.1427458750613546 0.3883356347040542
H 2.9409897187845044 0.04446569840150286 0.8847467542201287
H 4.0739776063043776 -1.1815175611977329 -0.8072995706826229
H 2.4721316727103027 -2.5470307779886445 -2.1216478787915674
H 1.8847032518969138 0.16912807404904573 -3.412658836571153
H 1.3998231904472427 -1.506235330746324 -4.040504425026875
H 4.986479807813727 1.4700025290532455 -1.7073648017653509
H 4.936761107440691 0.8652879600985155 -0.04212608435112671
H 4.138784624996184 2.3968561107328865 -0.4589236512928426