20

C 0.9461507457198689 -0.11278742005884106 0.14721380826104075
C 2.450789561402817 -0.02797893828999936 0.09252093929724009
C 3.172785367683264 1.054855285013857 0.9040261676420338
C 4.180386448162975 -0.04028688362066263 1.301604207276403
C 5.479324000726579 0.011593190555625518 0.5255822151254438
N 3.1875113676542326 -1.0306571146882308 0.8658864772921973
C 3.5722893654955943 -2.2610045780085497 0.24103959198448013
H 0.4854649955775055 0.7380515364814718 -0.3704373510311424
H 0.6059512414368642 -0.12390341481999208 1.1834511094010614
H 0.5862620297320663 -1.0231697308246228 -0.33362062409265286
H 2.7743099248204324 -0.00706825725228641 -0.9594333502876097
H 2.5809844446691796 1.414532393597624 1.749263932858335
H 3.5733981129690497 1.9155653250407987 0.3530507071042904
H 4.402273576040342 -0.11066393246176087 2.372766018258791
H 5.311681097012613 0.13764225158066243 -0.5498972966718966
H 6.081814436062167 -0.8929600831554283 0.6705018586727732
H 6.078172224992751 0.8641507368013349 0.8618867636260626
H 4.15268812403047 -2.872677821402668 0.9490597700327077
H 4.182847875486567 -2.133408826570956 -0.6686964652125448
H 2.6813080301815604 -2.835101266730963 -0.025957336064263675