20

C 0.9578337827702084 0.13100971393893837 0.20812763265834458
C 2.465749436257495 0.07669743267909913 0.04675595183711952
C 2.9620026298705286 -1.3240218986104706 -0.3139875217404251
C 2.6326574615780234 -1.706394863485158 -1.7478783419667712
C 3.119654338046915 -0.6236675697460079 -2.714816390453854
N 2.659784450928935 0.7130892163751743 -2.3827012109908985
C 2.9721513571040687 1.065982647697714 -1.0024110791127603
H 0.6116021731416664 -0.5840348928443511 0.9708519204436886
H 0.42716779191852233 -0.10779284027636789 -0.7141297711982143
H 0.6271115196622465 1.125237491075909 0.5288512647445851
H 2.9169715809857584 0.35868209125369527 1.0105431156878157
H 2.5577778652283816 -2.0633760913654426 0.38812427674625666
H 4.052376456886626 -1.3495241743098896 -0.19051922738092933
H 1.5503076895019363 -1.828379125187423 -1.8661257050479227
H 3.085729963993381 -2.6634025171874196 -2.00760854928045
H 2.8218946316144136 -0.8563256177439525 -3.7345509428506687
H 4.219091727410207 -0.6086526354109539 -2.7022169287928204
H 1.6672585739424979 0.7875732145923817 -2.5475602740796504
H 2.56496546206364 2.0670981324326956 -0.8050565614151513
H 4.059125054215339 1.1503123765875032 -0.9243127749917546