18

C 1.001594654874834 -0.04307901790133428 -0.00043682571226374436
C 2.3278388308043194 -0.09301276831026704 -0.037366485002777755
C 3.1123128711137498 -1.3699386520463501 -0.0528606937384792
C 4.104328684361298 -1.3834818198293632 -1.2215814753963883
C 4.92514111351148 -0.10662972181890458 -1.2354156952806077
N 4.128082469064467 1.1082155968574237 -1.2411035440763905
C 3.1854612830986144 1.1441007420856175 -0.12474402679876595
H 0.39653557787353644 -0.9405692752517617 0.04723023903544633
H 0.4723063084710455 0.9023311205377919 0.0022231611603668153
H 2.4407753501406715 -2.2377673601604173 -0.08855080352908862
H 3.680871164886572 -1.4399749388994112 0.8906022021752902
H 3.55418452997558 -1.4710211022539155 -2.1575319220658558
H 4.7602893299893045 -2.260505184914156 -1.147783222724152
H 5.586222305726432 -0.08375598294444844 -2.110977994602214
H 5.569547682008435 -0.06633914323863607 -0.3536839474800776
H 3.6057179528247167 1.162470973031111 -2.106441941573539
H 2.5644735121846725 2.041110119714277 -0.20057987499481655
H 3.7777260071852132 1.232313589447623 0.7970954317523818