18

C 0.9534194921992535 -0.11065356302518421 -0.17071528795269933
C 2.4423378298872924 -0.038415877372819644 -0.058580989544230404
C 3.1114807461906615 1.110417098822908 -0.0011128059088470281
C 4.608160406478226 1.1845745793058515 0.0569657561052126
C 5.230225600758163 -0.16473288239625633 -0.3027192833225895
N 4.573631319114816 -1.2870946094800306 0.3367592493470867
C 3.162857306094261 -1.3614579169193572 -0.020061442415941128
H 0.5077568956927396 0.8844159255267293 -0.21829151821898998
H 0.5154445607735109 -0.6417386580395605 0.6826386164045637
H 0.6556909724396778 -0.6636111465371207 -1.0582590723752268
H 2.5662425410519827 2.0508563041256385 0.00248566786742387
H 4.9374625300481805 1.500702756292713 1.049201395942821
H 4.961460802279974 1.956599161897955 -0.6351294388291333
H 6.2940649978843775 -0.18061328654428546 -0.04911215246773105
H 5.163939502954231 -0.3116627335275804 -1.390432366634037
H 4.653865355773399 -1.1936986872742246 1.3337167152029392
H 2.6618233256246127 -2.033101751733222 0.6755997027210905
H 3.0758534344030917 -1.8380067754544864 -1.0040391365790613