18

C 0.9967428544363222 0.1034840560185885 -0.04260826441432014
C 2.476438622510799 0.05446018616373279 -0.09061275870839837
C 3.258022002131835 -1.0218543755185279 -0.14848945578834194
C 4.719311896496521 -0.6750468243101404 -0.12397890238228
C 4.718627861197441 0.8456614784230791 -0.4384574708563753
N 4.926674634664701 1.1689218064055051 -1.837352448810934
C 3.3174367422240834 1.3104905451769309 -0.01573352674846305
H 0.5543285588597918 -0.8904733376537624 -0.08317925441277021
H 0.5871744472468682 0.6896291122877548 -0.8664917046965446
H 0.6466456683555483 0.5947301761168786 0.8753585984663264
H 2.8879120640450058 -2.0441469538584 -0.18138715382474443
H 5.319195199594518 -1.2279489538076986 -0.8427999078843449
H 5.142244719340552 -0.8845565243683624 0.870346333085515
H 5.4922073547200005 1.3656025295004304 0.13835307654884588
H 4.220020153331433 0.710647051785925 -2.39899017604154
H 5.823604433711662 0.8110693547455183 -2.1483748928376967
H 2.9587639141184137 2.1052578702129385 -0.6822339843513953
H 3.303746189179362 1.7135929976590045 0.9972188961105355