15

C 0.9286221864586559 -0.0638090809192751 0.09605948666762139
C 2.4104842335838454 0.06500544556090312 0.09898377551405943
C 3.2346750172748666 1.161299623371522 0.10091784071335723
C 4.551023183315684 0.6472044626830514 0.1123828465490494
C 5.83960698929849 1.3896263725984286 0.11214045756790364
N 4.527449885366112 -0.6829520124677939 0.11315177205093212
N 3.2364098010359568 -1.0006058293061186 0.10822593971201218
H 0.46951576507142223 0.9257265396368988 0.09164670202286103
H 0.5617051970455359 -0.5923875816832589 0.9794051031111531
H 0.57127199966617 -0.5903397049051343 -0.7933892726806205
H 2.939840278558879 2.199727923475386 0.10602925943772004
H 5.6581268137915375 2.47208577986312 0.11854873557620679
H 6.438187939690131 1.1433765076016964 -0.7631631351125551
H 6.434108739093233 1.1492590322522194 0.9983838054431705
H 2.976785391814201 -1.9724947836486353 0.10302421791855289