17

C 1.0036082455570776 0.10581213008208502 -0.14968499765572457
C 2.520915400685082 0.005654972281724096 -0.05514940941673274
C 2.982003965437432 0.017127529247152055 1.382196013370448
C 3.0368072875451033 -1.2074158218788478 -0.8602307601807546
C 3.319722471657524 -0.5573775893707649 -2.1860408346655227
N 3.3696034356911984 0.7102092780707195 -2.1278087753504726
N 3.1668109554423167 1.1070566827254582 -0.8232714836948803
H 0.5299659505208689 -0.7317981395216789 0.3558694064316746
H 0.6753488419137628 0.1082925008485253 -1.1944007411046416
H 0.6445118416108163 1.0301694317038237 0.31629815607440653
H 2.563714819275253 -0.8270301480068712 1.9382683790884156
H 2.6576790301363675 0.9323117853584899 1.8909907627367406
H 4.070012828927895 -0.025522743389202154 1.4406320579500655
H 2.3106617999030634 -2.0214999754407583 -0.9166625191061428
H 3.9575806859947753 -1.6080770843868406 -0.42403702706716967
H 3.541157707633399 -1.0690074707443078 -3.1125532834820504
H 2.6695313560452445 1.9901877894969031 -0.7887588948536403