17

C 1.0031256303272686 0.16956526403532496 0.48239910460270397
C 2.3069347832380434 0.02451074390283756 -0.2691368566161812
C 2.4237177448726848 -1.1800979118176036 -1.1926113387808892
C 3.3084262946614857 -0.6011734526414251 -2.27476696578504
C 3.9885080179326193 -1.3933584960400014 -3.3204796775464196
N 3.351077145987753 0.6739724170483293 -2.233930635802966
N 2.5292703441943223 1.1221157151465848 -1.2144908649130484
H 0.8628860279192784 -0.6681361145889153 1.1768146491606206
H 0.16261509116086936 0.1887823171124048 -0.2101171291156072
H 0.9737413128090002 1.0905277598384489 1.0689765061276435
H 3.1443155882496074 -0.013152716832736167 0.45205866250309235
H 1.4394463702115958 -1.442217789273355 -1.6237543220312964
H 2.825286354063026 -2.0674634787897483 -0.7137499823061966
H 4.668603098584446 -2.1328082383691 -2.880566279264721
H 4.554265329821783 -0.7442841935904252 -3.985022994311749
H 3.2589491700028193 -1.953592554067028 -3.9171328814267112
H 2.907973008561998 1.9685853530453956 -0.8188756538851766