17

C 0.9382541573163995 -0.03000205903674287 -0.17108870334762835
C 2.4184269054422485 -0.09297107350224666 0.17544700080896075
C 3.16621391399552 1.1581590815993756 -0.2667979250456251
C 3.4379901526126004 1.1044457540486856 -1.7685040698162147
C 4.10004287682273 -0.19390926590110655 -2.079280784289839
N 3.9319413219949806 -1.2672564039411303 -1.4037605236406268
N 3.0397069047398544 -1.285144285455257 -0.39289400903709165
H 0.45873171114680295 0.8061653201887106 0.3278201860575875
H 0.43259678091085396 -0.9488974658539115 0.13136592158505211
H 0.7944202844114211 0.07673794257227215 -1.246521383907939
H 2.504853186551791 -0.17623463715249124 1.2672318045930615
H 4.127920247387717 1.2088468256508773 0.25876553327876406
H 2.598264750846252 2.045452671245286 0.003866840910632441
H 4.074505908357188 1.9324582253720533 -2.083101624214696
H 2.5000005371332756 1.2104590430512772 -2.324514318838189
H 4.79969585553557 -0.2710984090436507 -2.9022347476293144
H 3.211655538391836 -2.0532550050862453 0.22133236810125614