15

C 0.9900767166495311 -0.09189561557391496 -0.1065221419021204
C 2.470791310844434 -0.02870851939418492 -0.05310330138316204
C 3.3286299888446766 1.0386999212586567 0.04689301582652601
C 4.650997787510493 0.5454386797360659 0.06192801954975164
C 4.578271019644388 -0.8157016222606427 -0.045783702442008606
N 5.529568962014994 -1.8496411549587493 -0.1157440999716533
N 3.2525525645028766 -1.1517879474152488 -0.11699534489394023
H 0.5760920485721638 0.9169955418587545 -0.04287607170798671
H 0.5710218088590926 -0.6698762324926754 0.7309133413332128
H 0.6235988251339886 -0.5529902843244294 -1.028814854696236
H 3.0146155819872895 2.077886341339681 0.11628674039148784
H 5.55984769831014 1.120201852852025 0.13764377999224967
H 6.2848209648234565 -1.6247753894575383 -0.7594550597940031
H 5.937167606624471 -2.055907023527305 0.7887315355615376
H 2.929956626821636 -2.096887262252524 -0.2346056478049138