18

C 1.0693695454158332 -0.0436731854925798 0.28951926678033824
C 2.51838390192872 0.15354889651511316 -0.12925012166233346
C 3.2385446312723185 1.2390562718476097 0.6967273182222091
C 3.821535714340316 0.08822010191281464 1.522851433738603
N 3.4407258605424653 -0.853550817897 0.455913397584991
C 2.621876220981575 0.21525179145478007 -1.6232030728877958
C 2.8337092024952715 1.3016110022147624 -2.3498703612345535
H 0.989605972304823 -0.1183979534160783 1.374056094517679
H 0.6613214035730027 -0.9626526752837536 -0.1538614897798233
H 0.45170549409436556 0.7924092318534587 -0.04606928503051627
H 2.604796279654848 1.9596767806694007 1.2124631593697137
H 4.002536878228721 1.7688970053131596 0.11676263628931675
H 3.28751311472833 -0.06033420669294222 2.4742904293686765
H 4.896110533129891 0.11735568127438556 1.7380762969615056
H 2.987195393468015 -1.7023297136215596 0.7738648744893406
H 2.4796257384965363 -0.7502128098955483 -2.1195194214846893
H 2.9896549242113073 2.268456813686877 -1.8880555154620295
H 2.870214050809641 1.2558549645702393 -3.4314532544909264