18

C 1.0038128571558467 -0.04072490021957597 0.6931116361549248
C 2.282799428566278 0.17588495634799106 -0.07592837476217972
C 3.28198868847103 1.1364537771390224 0.5989241310311539
C 4.053738414942334 -0.12535099060010996 1.021943304700429
N 3.2797300886696905 -0.9051546384848471 0.03470840132359355
C 5.53442079744014 -0.19737230491481822 0.8641884409711075
C 6.356017113005245 0.8425838220606211 0.8117131540478941
H 0.3533966808374175 0.8365395994425904 0.6379685557880044
H 1.1991802188688316 -0.25228509849895275 1.74437436147262
H 0.4456047436535578 -0.8851654599303906 0.28114011870243033
H 2.0443532141438996 0.4208749177623862 -1.1200536402397505
H 2.890682467907539 1.766644590578647 1.3893881958084269
H 3.8499814425547627 1.7397421956787473 -0.11634305145709263
H 3.806689453308602 -0.402662420827604 2.062762231502474
H 2.918786982543306 -1.7834057146832574 0.3704876055724177
H 5.942448400615398 -1.2035795042801996 0.8050310101303964
H 5.981506293686852 1.8629514744478806 0.864807207864186
H 7.4218892990470255 0.7248143850787229 0.7103914461299939