16

C 0.914615274907035 -0.0357575338076027 0.584170370288755
C 2.1436611094011138 0.1331471200764236 -0.2798060243911275
C 3.143667820438257 1.1911869111659548 0.22946799754786645
C 3.9628232939077437 0.006691567049721627 0.7863872267871351
N 3.197278644947809 -0.8865127609966951 -0.09405330204479895
C 5.3996987793790225 0.007903643230459334 0.6083782692489921
C 6.600617875407191 0.027397810184217164 0.4671542131904038
H 0.23237310668811792 0.8073333696143009 0.46279622146127164
H 1.167108399089837 -0.10315539098621514 1.6465090802891225
H 0.3664430463880382 -0.9388391151943785 0.30086160850966515
H 1.8508889247898297 0.24557000672019277 -1.322518968123363
H 2.779877904367934 1.9142013371759892 0.9581161376898057
H 3.6679208730834354 1.7086468956800451 -0.56958349730072
H 3.748298796656854 -0.14066229003100217 1.857633353473237
H 2.8927298280021243 -1.7537126133759309 0.32823222570737803
H 7.653007034628536 0.04348575680299822 0.3375236759908366