15

C 1.0068683250035222 -0.010400372715918718 0.3494946668436959
C 2.4655567237597755 0.11691589754049445 -0.06640062184548455
C 3.2432439198578735 1.2245399944538207 0.7061707727914122
C 3.8108865998291472 0.08081683922259698 1.558708630483456
N 3.3737095368653502 -0.8757074666979097 0.5280354548903021
C 2.5554794096679383 0.19013765436916177 -1.5211714878429758
N 2.6080400262426204 0.2775876253558616 -2.6698221982680406
H 0.9289331108223896 -0.020067263163867054 1.4479653582490595
H 0.5793817560131269 -0.9333535044897436 -0.030989655453688987
H 0.41594806071999607 0.8243699012667413 -0.029602505063719677
H 2.621221762176535 1.9715005973259971 1.201283805540947
H 3.9900032013148263 1.7075122347152605 0.09436583836438768
H 3.2925082035129183 -0.026735819505538713 2.523883194841235
H 4.884404555442374 0.08527031669510159 1.7362594103393296
H 2.9398791114038207 -1.7273983543891447 0.8387944677211843