15

C 1.0756386881494817 -0.04693701437426146 0.5566886043272501
C 2.4210642273232046 0.1101843380698464 -0.11753051399129243
C 3.336989861024292 1.1810228035392611 0.49776276604024045
C 4.083407481641292 0.007198224551419999 1.1672974625045913
N 3.4392201155115547 -0.907036364520079 0.2204846744084734
C 5.5416946642191 0.022756579240017775 1.139815944793703
N 6.688479288346921 0.04943290584779682 1.1228193989868103
H 0.42105162838662924 0.7902158869192768 0.3292187408262648
H 1.1840840748641115 -0.10496030753936436 1.6503067283278374
H 0.5807508593709488 -0.9568453152933192 0.2216556982564089
H 2.281768508987698 0.2005341624846472 -1.203795991891118
H 2.883804450243843 1.9098607744414289 1.1686618210285875
H 3.963919815986317 1.6949659824705419 -0.22909214474869555
H 3.7766230615397136 -0.1249103759926883 2.219780481764169
H 3.089938066860205 -1.7664836711558216 0.6164681383930158