17

C 0.9821926500157726 0.46920357145612973 -0.01398266165568823
C 2.422488089260777 0.19009328091295183 -0.37963790371700673
C 3.475190269496896 1.01856871221185 0.40024161244460715
C 3.7938305180563425 -0.24357654054823197 1.210910759492226
N 3.005965785421557 -0.9994676692084739 0.24523879445954908
N 2.3107486772745847 -2.111960742660297 0.45762700822573715
C 2.661138348940312 -2.884299094987784 1.4078726267936685
H 0.6606702392895318 1.435450726961634 -0.4262871467215428
H 0.8389987720112675 0.49745157808050533 1.0661315096494761
H 0.32423444091144893 -0.309865796453957 -0.4179392448841449
H 2.541725595657322 0.20187728286193857 -1.4658932047630195
H 3.0736928823261893 1.8641408171212004 0.9683514402325788
H 4.300444589430218 1.3651618653314272 -0.2197130756080031
H 3.356408860186294 -0.263049920414995 2.211406482841165
H 4.8484466547053815 -0.5389976174979636 1.285165728993045
H 2.0909714589374953 -3.8019039755070545 1.5365436695002623
H 3.4952509856000256 -2.6923843537271877 2.074955267317998