16

C 1.1251612024296473 0.17281879523304758 0.6581881122944822
C 2.243378915738955 0.040444562596277954 -0.04565102384267063
C 2.8061050230816478 -1.2260760975819585 -0.6295953802600625
C 4.31702623477248 -0.9495947571614839 -0.6448388587317236
N 4.529810370838694 0.49595003953999395 -0.660768384900677
C 3.7732231722581515 1.1767928287293 -1.696267105507409
C 3.2279666657303263 1.1087473061684827 -0.31581056323507134
H 0.4832238983212363 -0.6741028748773163 0.8574120236788549
H 0.8143158941057869 1.1439585635413685 1.0522828756051523
H 2.421263474397391 -1.3830150783048254 -1.6385777778129775
H 2.5430073410886984 -2.1085853695061956 -0.04533184404156244
H 4.837052360984502 -1.4051668583811665 -1.491289523252791
H 4.779941957555901 -1.3377680139453607 0.2704685477394827
H 3.286996571146595 0.5881077943434241 -2.462389203448845
H 4.209373674649186 2.1055732902299416 -2.0397846856340753
H 3.244252646919194 1.992008262126456 0.3223506136241517