16

C 0.8932464683799536 -0.07223330424188995 -0.09457318696189375
C 2.352216087530239 0.1622858412465608 0.09618773760266149
C 3.052954852577524 1.2685954168774618 -0.1298861031702178
C 4.493015760436858 1.0742742042719395 0.244949604720285
N 4.619415151240717 -0.33086030850236287 0.6615395015278387
C 4.3301436294957 -1.2979385847172478 -0.38450945493602046
C 3.277404423093123 -0.903282433805799 0.5754201144906441
H 0.38911780950517844 0.8218445968037019 -0.44102158773101924
H 0.4253333887600102 -0.39024895072893667 0.8411917796395024
H 0.7183517819667241 -0.8788051005193167 -0.8231563492854675
H 2.662155012923369 2.1898706037078934 -0.5328028704042068
H 4.792879235803748 1.7259870633314023 1.066840301002051
H 5.18356542669831 1.2840931869970302 -0.5852238733850305
H 4.85127039890393 -2.235965667972612 -0.26810357379002125
H 4.215768399268238 -0.9393203394196068 -1.4020858751843401
H 2.959365729071038 -1.5785870928242831 1.3724137761617616