13

C 0.9510143352462239 -0.02426835502764952 -0.19920080786614155
C 2.2779377431439727 -0.1084533360279905 -0.004635325426114463
C 3.119846869933377 -1.2715990734688605 0.20900149721056424
C 4.381752480823514 -0.8305451383055499 0.35585203984321967
N 4.4422471905202405 0.5480335626550005 0.25973421287365245
C 3.1803796425327846 1.0863936233306979 0.03234092823592847
N 2.833334599676252 2.2956269460768444 -0.11765462762129722
H 0.3351756589437784 -0.9079066888586065 -0.21069421417970996
H 0.49205898009198046 0.9492064940002892 -0.3405638065199181
H 2.7907430597985723 -2.2976926437198135 0.2503506630139643
H 5.276601140993722 -1.399598627050803 0.5385944152861919
H 5.282689923339364 1.0902239532871056 0.3332556743228037
H 3.6217284576582935 2.9354411591501495 -0.05538404229485652