15

C 0.9965209506288094 -0.04665030686007062 0.05220966280434906
C 2.4741149210089146 -0.13300038484898694 -0.011481801538112159
C 3.256850251068682 -1.203202181231626 -0.10018128863723633
C 4.697936249423514 -0.8046269577361421 -0.12984754612186597
N 4.609411648904244 0.6278562810607417 -0.046347631510052494
C 3.318916227211827 1.0805566172987906 0.03100546496419227
N 2.85523814880312 2.261639195072845 0.10925745935999927
H 0.530056139014944 -1.0330349260688185 0.009653886719492662
H 0.6192216595329839 0.556928474865588 -0.7833407064722117
H 0.6738360053066361 0.46011686508054483 0.9599070726525567
H 2.9415647024474394 -2.2387879747009203 -0.14621960955276977
H 5.191197401406483 -1.142814840631257 -1.0449734038926484
H 5.256889953891057 -1.2448047424456874 0.7210169318669362
H 5.409434719942071 1.2342303641734313 -0.033711711711067835
H 3.593521170566036 2.962986752845413 0.12596134916620552