15

C 0.9632069157611285 -0.07529448378767654 -0.05135904238967903
C 2.4755322923175034 -0.11352297025410246 0.06195262898417091
C 3.1405343179892538 -1.336799153880382 -0.50714638796915
C 4.026395078813993 -0.959397971683137 -1.426427358325614
N 4.079442000248868 0.42592417346034017 -1.5397813560366749
C 3.135687127851701 1.0233306280951049 -0.7247535970814135
N 2.8248674476267484 2.243938579132725 -0.604194055435931
H 0.5131755213421106 -0.8472387347902499 0.5681702589773239
H 0.6478810018261879 -0.23006174528074094 -1.0829876577752853
H 0.5887301973414523 0.8985981952472898 0.27729225835349064
H 2.7557362104035974 0.022998967319123684 1.110408691364561
H 2.922973985653283 -2.34998666914684 -0.20457505950298177
H 4.689597244988429 -1.5745885701424387 -2.0289488740005877
H 4.580581527187273 0.9143244442219943 -2.257077383269732
H 3.378591402940561 2.8430332078142535 -1.211575693619658