19

C 0.9023061312926536 0.07786664769721913 -0.04577833138580181
C 2.4154636420100832 0.08022195809941583 -0.029223670647417654
C 3.1674287761514823 1.1268317521189983 0.8228020197006731
C 4.209874731743199 0.05233410098642072 1.1998851755086288
N 5.4200932243193165 0.16588419026685985 0.3998584513148112
C 3.1693716926645696 -1.0138526290425918 0.7630442828413326
N 3.677635302077753 -2.21628073390412 0.15749193840266884
H 0.5061681241507033 0.9672408046140345 -0.5403670052175704
H 0.5105766779886592 0.06784661813771758 0.9756883284812368
H 0.5112818095818843 -0.7962400496902705 -0.5670380263655005
H 2.7979280184712567 0.10613884496389726 -1.0609389474444944
H 2.5793303065663924 1.4398218219415482 1.6882655869430552
H 3.5548584705911983 2.0197432929049444 0.3256549206072589
H 4.508241439692011 0.007582726203390797 2.243207660448167
H 5.205642364599046 0.34674959293683216 -0.5736315438463347
H 5.945233285711958 -0.6978980328071192 0.4414975131823075
H 2.5719621451283907 -1.295417692062196 1.6378561246737753
H 4.097508062887813 -2.015588124359066 -0.7461594719455994
H 2.948418355093538 -2.8954692984779316 0.007787806472457619