17

C 0.8784467974383771 0.010863160109098621 -0.02009275695277928
C 2.3886011265280445 0.03701634485720653 0.03026788217742105
C 3.0188184387035117 1.1922160137618365 0.8245421113322312
C 4.366221864611596 0.6280480667793001 1.2565836422340597
N 4.070000032769279 -0.7757432275654045 1.4251935893314047
C 2.999572548277552 -1.1940736700308812 0.6650760041009369
N 2.551439829803325 -2.3727567311202407 0.48415132589364573
H 0.49298417482219536 0.8837878281944079 -0.5571282768334609
H 0.4632620737245704 0.01096239935447144 0.98300729642367
H 0.5364477956732682 -0.8912340185391358 -0.5282815365177136
H 2.7909808640715457 0.054862024422306775 -0.9933424247021392
H 2.4026694037783805 1.399030494554225 1.7042331328348421
H 3.1115581871030455 2.1058420863068625 0.24584027069322245
H 4.727326572810641 1.0744857975460498 2.1851253213909394
H 5.13250819048899 0.8015071270329235 0.48781021369395533
H 4.772521045794564 -1.433590034676483 1.7213186390742234
H 3.110243771558492 -3.0676276082134666 0.9692428080404855