14

C 0.976255874733551 0.07295975650086459 -0.04568270590722773
C 2.479062209233529 0.09090619006407372 -0.10819120992897183
C 3.1919359952462307 1.2729934100714393 -0.1330468343547336
C 4.582493075001548 1.239518843837563 -0.18946891248147635
N 5.287370934968308 0.11519267760046215 -0.22866938570395084
C 4.594446151111945 -1.0286860262977797 -0.21503817933393146
C 3.2154400491871105 -1.0908164128687687 -0.15536472545867416
H 0.5729188228233189 1.0732659224875047 -0.018922114070881742
H 0.6352155818897798 -0.4618431440038406 0.84452966154741
H 0.554950421118519 -0.447529010925075 -0.909014790727931
H 2.679716816899183 2.230467848132992 -0.09108241822508899
H 5.148424934604494 2.160649355737977 -0.20562842899798778
H 5.182739048837628 -1.9373164389900654 -0.2532656220398015
H 2.715267851361934 -2.0545365492942853 -0.14567274624745752