16

C 1.002400138403494 -0.012561103332252728 0.07739954270123327
N 2.4424215254077764 -0.034230026393597776 0.0857338698853004
C 3.2515382088302975 1.0638065391308624 0.09072473097465315
C 4.5485830522185084 0.6283525254936632 0.09160157360338536
C 4.53341330887711 -0.7849384834609754 0.0991329250699158
C 5.720326778560751 -1.6883200617710057 0.10330808463640276
C 3.214448569866126 -1.1623024491862344 0.08902498410782263
H 0.6580048550872167 1.0188089499261055 0.0717728885587357
H 0.5982360738206199 -0.5063395125877147 0.9634454551821033
H 0.6073351780542073 -0.5125054695610953 -0.8156348257028501
H 2.8333171993459194 2.0599366336243206 0.08017746991648789
H 5.424744538226031 1.2597700123556737 0.09485932882908889
H 6.648166202457521 -1.115941705620431 0.10823235479525932
H 5.749295864706451 -2.3401589132721505 -0.7786038852613986
H 5.738572683697709 -2.3364798038343753 0.9792181130011326
H 2.755160420499294 -2.136125553128693 0.0861877514024585