20

C 0.97514799234627 0.10378104608241306 0.28275335329981555
C 2.485318692757677 0.047681044205816474 0.08145720501008225
C 2.9685172791056686 -1.3497070971043599 -0.3242293216655415
C 2.637218415170407 -1.6860974791498233 -1.7642775808517521
N 3.189193178309917 -0.6659608696964356 -2.6458565064713855
C 2.6350077302097685 0.6392392232639197 -2.383230252424763
C 2.9623239538788564 1.0637739715943946 -0.9555122781959502
H 0.6568462907507767 -0.6083475388037579 1.051792368629514
H 0.41600735245499304 -0.14105487393472016 -0.6260334886456204
H 0.662769048567548 1.0991939703818052 0.6073492310134551
H 2.9457044957622425 0.30245571522669623 1.0404679928115008
H 2.539408373007057 -2.1023622234372032 0.33960289373091895
H 4.055896519385455 -1.3974095730436917 -0.20661919638345286
H 1.540523482224482 -1.7827204916292292 -1.8833242489929287
H 3.0638754614001726 -2.6516255437851783 -2.035613490317002
H 3.0516332913499373 -0.926501323753571 -3.611686190257522
H 1.532327674606033 0.6663974358146149 -2.5273961967450864
H 3.061869414002382 1.3543793271833935 -3.0942216996945113
H 2.5324983794122957 2.047814194183083 -0.7546658322965608
H 4.051900546897723 1.1668304198621147 -0.8809333370131782