16

C 0.8365320221304774 0.1074907679172143 0.11414437799837508
C 2.322057623579643 0.027139364810728258 0.0336818922231594
C 3.087265817767885 -1.0678858269363174 -0.056044239529154494
C 4.54495031983579 -0.6815363459572679 -0.07092782549512192
N 5.399240339914072 -1.196898961698079 -1.1332063076269734
C 4.481166629198646 0.8137944743593409 -0.04197057701231578
C 3.200847457357223 1.209092774849401 0.05133040156502071
H 0.3795059815846919 -0.8771827528267808 0.05510014959639253
H 0.43547487386085937 0.720579621196254 -0.6955383157746398
H 0.5146422156791768 0.5801670081565274 1.052981897646839
H 2.743299130933921 -2.099516246703023 -0.09531751765552109
H 4.987648681771397 -1.0023710349609698 0.8907376978368701
H 5.010272083656833 -0.9518155347644818 -2.033728014769639
H 5.434524047946852 -2.2044767861883576 -1.0958112925848678
H 5.364278628292443 1.442916298288889 -0.06894420869258121
H 2.844396165080461 2.2316834004277974 0.12425555111677831