13

C 1.0689030595121611 0.03166348716808607 -0.02357933707987423
C 2.557496760834145 0.09798601862249408 -0.08640192237434441
C 3.2536765901993374 1.306591280098522 -0.1154691258454995
C 4.632071092732888 1.250860569104642 -0.1845016258825155
N 5.293891898170527 0.10954280656570123 -0.21413963376039533
C 4.544224826525963 -0.9905232451756742 -0.18238724220330507
N 3.222005786767059 -1.0543560614556182 -0.12396158029705762
H 0.6183156841563363 1.021595901014878 0.002279008366981962
H 0.7728318357821045 -0.527252499166534 0.8699859607522836
H 0.6907036051872127 -0.5183130459772706 -0.8815942676599168
H 2.7276177250077374 2.261641630055598 -0.09253716386502861
H 5.220540685065398 2.164475828698269 -0.21001297011413808
H 5.072682585908836 -1.940539803278668 -0.21844448024487423