15

C 1.0059344358347335 -0.09284946453295423 -0.15051478053139167
C 2.5365250961610797 -0.04382246706972559 -0.0930054585445405
C 3.0244124657953457 1.2090629070886518 0.5686984302374987
C 3.4175760151538443 1.1812696389186121 1.839185295541692
N 3.441937488456183 -0.02967010184527889 2.527058761580153
C 3.395337471411274 -1.1781967139140872 1.7707058621598852
N 3.0373021004233918 -1.2499563895382086 0.5559624364962099
H 0.610381348590983 0.7489138912124832 -0.71318150087253
H 0.5873861198278694 -0.06138722497237183 0.8605484456898573
H 0.6826614139151153 -1.018991049412879 -0.6267148374817956
H 2.8948327635444526 -0.06750499601319364 -1.124940488083107
H 3.049364854015465 2.147230360117901 0.017504349020574232
H 3.7591599560006097 2.0487691741357583 2.3862790208848113
H 3.9315731990293434 -0.07420565890086758 3.402342944982903
H 3.7113632706099997 -2.0817561337207455 2.282219317929785