19

C 0.9957580817117294 -0.00333213052462232 0.36888884534612393
C 2.440890583533225 0.17276398906115772 -0.0962293488229782
C 3.1447343992310115 1.3471395684877912 0.6191993066209261
C 4.439542226260487 0.7574229708171519 1.2014791160065228
N 5.539968508798976 0.9338512565461816 0.27028505182350226
C 4.0284504547939335 -0.6987430755021057 1.4238322721395347
N 3.296623696144675 -0.9727416651389174 0.1924941214600159
H 0.4060424204873487 0.88465603466201 0.15775322454279078
H 0.9525203684823879 -0.1923684690096529 1.4451948412898672
H 0.5298936823136153 -0.8560958191910266 -0.1439397645491271
H 2.4312258777407694 0.3453382681984591 -1.1745184171318286
H 2.510685697739588 1.7228769082543074 1.4325402755781713
H 3.3612112992933385 2.1831520403139195 -0.036841676119107665
H 4.7096692750994835 1.2503695356427444 2.1384111619375545
H 5.363505920949378 0.3677224233969646 -0.5546699232538363
H 6.401812906139984 0.5887949682575002 0.6785643773108412
H 3.40728277603901 -0.7748061351358078 2.3399855801142313
H 4.882866800208528 -1.3602734708881614 1.5360805479524915
H 2.789884974732986 -1.8449603370244871 0.22046557845979337