17

C 0.8766772791283812 -0.046071660325457474 -0.18286855747454914
C 2.366464327814433 -0.13189860248502702 0.14117555502164275
C 3.138330250301296 1.1018572566614133 -0.3216539639525428
C 3.4087190034056887 1.0345150141877966 -1.8244740257661087
N 4.079776686999855 -0.18875243616072895 -2.226624387201067
C 3.819508228243696 -1.2151072298158379 -1.5273077379328264
N 2.9852902528366836 -1.293523789049756 -0.4539489008228551
H 0.4205217185816999 0.7931916536069694 0.34810819282579425
H 0.3638655469756994 -0.9569510169475891 0.11716911141537799
H 0.7227003659836052 0.09556140739093433 -1.261510652043035
H 2.4724011783255495 -0.21942729483809828 1.2273387349904892
H 4.102226394495045 1.1269579441913216 0.20182677231286753
H 2.592470263001285 2.0077484872109435 -0.05953866475694432
H 4.033537009826786 1.881073958474844 -2.119191971494646
H 2.4773423313086607 1.13662467742736 -2.378848951542942
H 4.295926283042588 -2.1611524810521723 -1.789953194532764
H 2.932136373954186 -2.1715754927288127 0.03655350698538942