15

C 0.9755123594117213 0.12987420304264247 0.005297735419219565
N 2.419195031308709 0.05747790912666715 0.0027367864069415752
N 3.1345984216622225 1.1891700384942305 -0.00783450534037344
C 4.395439642572037 0.7855782809375816 -0.0096623901653282
C 4.490017213327911 -0.6117711583670757 -0.009579178096760848
C 3.1797176647554735 -1.0574719703757982 0.002240651085411106
C 2.6132041127699632 -2.4239224498712875 0.0055692657695615615
H 0.7025616772466642 1.1805970771822396 -0.002133082365173228
H 0.5667464764175743 -0.3514969901596639 0.8968906143216072
H 0.555670767097081 -0.3553255719796129 -0.8862759384437472
H 5.189767354260928 1.5182916273169447 -0.009630218896197498
H 5.383266946999894 -1.2211064692297067 -0.007941219923930636
H 3.422969317019428 -3.158481041075617 0.007150108259403445
H 1.9880830908619207 -2.6130717732155255 -0.8795101473522338
H 2.000563060123395 -2.6094443805817242 0.8859085137809077