19

C 0.9522192153817886 0.04840647076362643 0.06291379532389414
C 2.4440889998286397 -0.09725150110241705 0.027908559521272115
C 3.2043220973087077 -0.9445409616062477 -0.935587017477528
C 2.5862305791063167 -1.7396621018099936 -2.0495374593938998
N 3.487928096147544 -1.7511666402260166 -3.1938341058145605
N 3.1784196360013612 0.49902272403739095 -1.0712388299044386
C 4.397788012492002 1.1968487881860637 -0.7275588739118451
H 0.4965339320329934 -0.7428027140978546 0.6605471957592075
H 0.5253460494528611 0.019903292498078123 -0.9401793154098733
H 0.6841017487755126 1.0087847545814523 0.5060726833475775
H 2.9301171433773376 -0.015373213939699912 1.0057309491976405
H 4.135507137283104 -1.3662724104674413 -0.5592802756493004
H 1.58345386292857 -1.3426263318157727 -2.2768736723265075
H 2.4437912493348346 -2.774261057570434 -1.702909461133749
H 3.5853799427457846 -0.8044317891338292 -3.5348007923964255
H 3.0953882754170645 -2.2997854948525798 -3.951949976848878
H 5.0701345627713765 1.2203726215780204 -1.588987245169256
H 4.943271983827701 0.7337654978011598 0.11277685411792619
H 4.167121612800367 2.234901748011428 -0.4510875561260085