17

C 1.1404310001920204 0.04387247558385084 0.2783717236464804
C 2.5687441051516555 -0.008290894197477182 -0.2081626353641724
C 2.9355148640290074 -1.242671987054498 -1.0435708846066116
C 3.939905220406033 -0.6324066447164955 -1.9688295713153705
N 3.903495486547553 0.6414193792211836 -1.9868037488160482
N 2.9135150103008023 1.0764169077007333 -1.1346891602126192
C 3.1875017841162063 2.3623017124838745 -0.5589548363973093
H 0.9348359199077315 -0.7940256017104881 0.9430964524271257
H 0.4448812036401738 0.003572789282658774 -0.5635776509246389
H 0.9404607149532458 0.9642562818756559 0.8351038143474543
H 3.252369523815164 0.04133151274752067 0.6520009940311328
H 2.0615150076053324 -1.6080701854139838 -1.6098619640383294
H 3.312778012619847 -2.073344956306199 -0.44969353441052606
H 4.611288471372945 -1.1713476536309646 -2.6270822306407244
H 3.471251306212399 3.0523307932621724 -1.3576070425715778
H 3.9980367414617706 2.321364458537244 0.18159854021521038
H 2.2885044081622583 2.752303982590176 -0.07780441982977826