15

C 0.9287015321595439 -0.012975487376505362 -0.16990914597493456
C 2.4108828533735664 -0.0034929196398497844 -0.10803848160664886
C 3.228745552697565 1.0971611121673785 -0.18408957514280083
N 4.52781391704197 0.6769189510474036 -0.0855858431491027
N 5.60007965313494 1.5512514495611769 -0.12621835799770856
C 4.564371036849462 -0.6777757522096591 0.046736036005039394
C 3.264218996681426 -1.1259913802304413 0.038478175370505054
H 0.5310788501996367 1.0020296730514893 -0.28515574918216596
H 0.48184963275231424 -0.43059263634722345 0.7420314256387256
H 0.5597602802841933 -0.6098098153840653 -1.0036038059957366
H 3.0072197904905793 2.147664092164201 -0.2859475944438842
H 6.133255848368631 1.4760972634352687 0.7301559113794445
H 6.199977183570105 1.3175506542738815 -0.91177968902813
H 5.506324488222052 -1.2027862503889333 0.13112973067736955
H 2.9583660383197214 -2.157256103822779 0.12378861629800397