15

C 1.08937393935882 0.06108392536081667 0.01761353795530341
C 2.5727594871650576 -0.005409194003574585 -0.02328009177925729
C 3.362700134004507 -1.0847130945784442 -0.042925579339214676
C 4.771667832893596 -0.6828863670411764 -0.08516543381178224
N 5.850709144057962 -1.3728671745914494 -0.11337652614637969
N 4.7545029918710595 0.6859577124507987 -0.08484736658182247
C 3.425469245523318 1.2236793227012779 -0.04744338095200674
H 0.6502608333178037 -0.938187055025967 0.039829141059641644
H 0.6995310713752647 0.5951686594433422 -0.8519398953395982
H 0.7443822328473281 0.6034490803996634 0.9092441935126858
H 3.0414457785009454 -2.122314323901262 -0.028535609881202715
H 5.632953288195523 -2.363347984480398 -0.09696370052423509
H 5.597973572042325 1.2292795259855527 -0.10984858629765487
H 3.189328104074222 1.8461631220747898 -0.9279497951446877
H 3.246253106468952 1.8474274188489117 0.840518937234973