13

C 0.9539710291901556 0.02646006820858517 -0.10062109119978413
C 2.4265277703563286 -0.09599899698418171 -0.09463577112088022
C 3.2186875392809013 -1.1704518201660608 -0.09781643506109178
C 4.608950690436906 -0.6850956471585296 -0.10224439638907055
N 5.701910668831961 -1.3193387701165178 -0.10313123253796486
N 4.607485282654705 0.7472258880920751 -0.0978257883310585
C 3.36637019091057 1.0657427950934206 -0.09410864633861978
H 0.46874839042873523 -0.9561631007085213 -0.09560093411746808
H 0.6082899081075066 0.5813982542663868 -0.9718778155285178
H 0.6009608339449899 0.5760842657428041 0.785270448655019
H 2.9288391172769184 -2.2126447398825824 -0.09769873619049464
H 5.521429194570264 -2.3212738504037596 -0.09425560735215474
H 3.051330343261582 2.1010172014442228 -0.09875505711451468