17

C 0.9764187477171332 0.0854826112754036 0.0734835543488522
C 2.5119890802452636 0.03356741988954277 0.04129655413880434
C 3.025245927938259 0.20666699601253635 -1.3749931776819768
C 3.034648012127156 -1.2285258410361763 0.737503082951053
N 3.1373861462361363 -0.7917966786905222 2.1259599620420495
N 3.392226631651272 0.5641148209316064 2.148846835836257
C 3.0530190499297762 1.0570180472348476 1.0141186920118792
H 0.5579077247748235 -0.678077902401402 -0.5869094636780422
H 0.6155173630587983 1.0615151348902327 -0.27143974536359056
H 0.6090035836259668 -0.08339847200067114 1.0818115703418387
H 2.664596250249075 -0.6066104789027379 -2.0235163402319016
H 4.116499889832881 0.20142300449445713 -1.4094824852576997
H 2.6829320457041677 1.1394477733563817 -1.8040466519315357
H 4.0282552782671734 -1.5008570329576665 0.3291084821176333
H 2.371092932648521 -2.0860128832334603 0.6385407844453755
H 3.8019472553614153 -1.2859930719171713 2.713095828587926
H 3.096638216049293 2.120594170718365 0.8502501101589913