18

C 0.8568861311377904 0.274613328068034 -0.21412604504562252
C 2.3109273565292727 -0.026054856843106343 0.0598383942879622
C 3.075923060104611 -0.8145694070589244 -0.9251494590457329
N 3.31423596238759 0.6146214040502399 -0.7743894150911643
C 2.657270138884467 -0.11564407380374792 1.5194580957074744
C 4.065848628001155 0.09733739831675188 1.9877157927907527
C 3.0209387389581237 1.1314591636290041 2.2673041540743615
H 0.6531734783502182 0.28269698344937355 -1.2918442027290513
H 0.5845727202289615 1.2466911388496142 0.201447692723468
H 0.21114053331587831 -0.4793586775339786 0.23681008862442662
H 2.5587071089333415 -1.1658113824774285 -1.8150718646360264
H 3.8836045510234465 -1.456575662761062 -0.5880575291353468
H 2.8666897895666037 1.1319720486970228 -1.532055740084034
H 2.0685074460475437 -0.8423942071907612 2.056922349072059
H 4.798408820499389 0.3369668112165918 1.2266781713234383
H 4.420008993912981 -0.5109022469902328 2.8014785348252724
H 3.0771873761771213 2.047312246034441 1.7026393838609053
H 2.6572297284097153 1.2458936755216186 3.280182470369164