17

C 0.9262603688784934 0.16616646039233912 -0.14550549883400196
C 2.357653951712741 -0.1667561736197027 0.16021348159419213
C 3.15676157421232 -0.8955903093751069 -0.8391652788545387
N 3.411771440077558 0.5189789762051151 -0.586489089145354
C 2.657582017804168 -0.3300540901176233 1.620114206072274
C 4.031766291181035 -0.22069842416545907 2.1335877645260655
N 3.0487191077719733 0.8329111234740236 2.4069153904965135
H 0.7585624167317848 0.262737265408666 -1.218007294625457
H 0.6327690097167519 1.1068580879626275 0.34092866394532956
H 0.2538120976160065 -0.614982961174988 0.22535418797001797
H 2.667540895742791 -1.1788609323269175 -1.7737991850676444
H 3.94633231204857 -1.562384220165635 -0.518724835382843
H 3.000971972382094 1.0875561771322966 -1.3162219019436578
H 1.9581960951084068 -0.9898867862675055 2.1364401202247567
H 4.811728306951842 -0.008411003595786313 1.413950318978916
H 4.318315168228152 -0.8030976234522076 3.0035039752326176
H 3.2354744106642586 1.5995011564485495 1.7596235355013579