16

C 0.9842926531477726 0.5447643768829105 -0.3564354080698695
C 2.4554595582707175 0.4237478262354404 -0.11232610899756353
C 3.2864590092232677 -0.6525370431486311 -0.6972751626032364
N 3.3446711536253084 0.696505921135053 -1.2274261832452518
C 4.561426160807436 1.4206411753657986 -0.9166106065322647
C 4.346473894917043 2.8663612572991646 -0.9209966688255867
C 4.178962966545233 4.049894562473038 -0.9021015647908167
H 0.42577902516296096 -0.02541950060330631 0.3863298609281709
H 0.7381238315505165 0.16883189913379046 -1.3559418687838936
H 0.6720253335071862 1.5937966658549423 -0.3074072941555018
H 2.802476737938845 0.7924608985519901 0.8497335060094556
H 2.8245860190456926 -1.3937580849121631 -1.3500650504125562
H 4.132657193776734 -1.0112534181760149 -0.11437493790149957
H 5.321098761889685 1.1706554056017524 -1.669678230689284
H 4.98798510683919 1.1268308610163016 0.06036164580659116
H 4.027608211401002 5.099383897428132 -0.8948469849897521