18

C 0.9124144057019955 0.08028578964844933 -0.015486534848890775
C 2.428131681210505 0.12784884087426943 0.06301975224785628
C 3.083385237803904 -0.9634493093222928 0.9838853927091765
N 3.8786136863484137 -0.17124694515635275 1.937406984998269
C 4.467346627386358 0.8511892163737363 1.0035908534956859
C 3.025496596932243 1.33287672513189 0.787615581890849
C 2.886250528949769 0.9079329114389907 2.2656050218501873
H 0.5712050495025917 -0.8598537896432027 -0.4498470059826254
H 0.519351585702534 0.8949679621639731 -0.6272550733063745
H 0.4593343847985575 0.16678784703435126 0.9779977081776777
H 2.836568309039106 0.06178075726097005 -0.9522658681290109
H 3.7325875624053024 -1.643291030072339 0.4402578118614128
H 2.3290039200253636 -1.5491079423273013 1.5212003348201717
H 5.01477318392787 0.4260239952371554 0.14973977120056128
H 5.10175078581645 1.5504738348353748 1.5503931691320507
H 2.772293648551277 2.3275991499123054 0.41735235608295357
H 1.926810844018764 0.5615382371910381 2.6447661334144827
H 3.3307619777284496 1.6205891255248743 2.9660034880565553