16

C 1.0047365664776378 -0.05804917631523848 0.08433646535959577
C 2.328711896247082 -0.02572479277668152 0.060165530561001906
C 3.3492414878275256 -1.1527521332988258 0.09181327247089154
N 4.626563207564235 -0.4093596931804032 0.04383906754652167
C 4.294346663353425 0.6086183904843044 -1.008622535562463
C 3.2496292058183482 1.1540223678552404 -0.001288510235121105
C 4.321606547594053 0.6944715820105468 1.0143540188803497
H 0.46983073161620265 -1.0069611245054704 0.13079710439371608
H 0.4076352323502173 0.8399362634173234 0.06173532346925271
H 3.2678273261976964 -1.8256515231141466 -0.7632009810716893
H 3.2920447876866614 -1.7507736700372145 1.0142337855952406
H 3.939302561259731 0.19110971624048168 -1.9585510434604205
H 5.133190065675344 1.278392923157392 -1.1592222261623675
H 2.8214712072353767 2.150835564799585 -0.03857040906428842
H 3.997197069171827 0.3587748323902154 2.009762385344657
H 5.166694674877438 1.373413684371661 1.092972797180727