16

C 0.7995193419659385 -0.0222717531774792 0.22466339125362
C 2.3112146638835114 -0.018298829862368235 0.0739129866958646
C 3.103069638539847 1.034495589082334 0.9033823255500965
N 4.03379365468445 -0.019829803331013966 1.3291837372706465
C 3.1003981599275443 -1.0662220190113636 0.9106997013821984
C 2.7045411474539254 -0.018880800739827442 -1.335765182848248
C 2.998532668717073 -0.022442319532727878 -2.493181412446441
H 0.5278302147811097 -0.01688507308877978 1.2738403977144357
H 0.37207396485398697 -0.9069600232346126 -0.2557340226221308
H 0.36773772305616764 0.8595152799021356 -0.25230652475959675
H 2.4698353347486073 1.4326974203594984 1.7079931302524698
H 3.553043519541265 1.8596553621537983 0.357071934319411
H 4.284501986986617 -0.021173776531484893 2.301449347149944
H 2.466454068682507 -1.475284107789651 1.711886785621078
H 3.5566368406596456 -1.8963169400684838 0.35711876327090913
H 3.2753333489005922 -0.018305335447880794 -3.518702865483967