20

C 0.9860248445854758 0.12311162131215202 0.07811368293933044
C 2.4827183518691065 0.09593282536859361 0.0636928119598396
C 3.2416319158346893 -0.6742146597298462 -0.9982362686493534
N 2.6281959844224922 -1.374473270907554 -2.0808297350229528
C 3.3148788715071418 0.820986721327075 -0.9695547933891127
C 2.6279365840358713 1.6369021638791945 -2.0400197119754178
C 4.605510971413768 1.4438169999249038 -0.5039608534102229
H 0.5929661238730659 -0.6351898169199396 0.7658926197149453
H 0.5519344643557329 -0.08172022448615826 -0.9006614084623505
H 0.6042384295806983 1.0970678264267775 0.4122699195537904
H 2.938786502634754 0.06655681113410106 1.0512270863656574
H 4.1478222788505095 -1.1772949658512424 -0.6461772762138267
H 2.1224050251847735 -0.7723437678924127 -2.700667036550721
H 1.984546198343549 -2.0891480624348415 -1.753180820074473
H 1.6512980036930158 1.2434428163223652 -2.324399034973805
H 3.2467013818949395 1.6793058565869026 -2.9517962707914576
H 2.477131710698214 2.664904729071462 -1.705837823409432
H 5.080482081212235 0.8212423648014003 0.25883724288308535
H 4.437097031599237 2.4382053473145917 -0.07892919404230662
H 5.311058769444829 1.5479436491605216 -1.3366860709742945