18

C 0.9978672034420132 -0.12844433529650884 0.1809515609706623
C 2.4701923561665082 -0.029847511900878705 -0.07543778254489195
C 3.1092044086039237 -0.6367972418761065 -1.2979152051729048
N 2.3915290588721 -1.3185606492151811 -2.338820427409993
C 3.0183906018499216 0.8463658798866076 -1.188341008996405
C 4.180083172096972 1.7188492571326839 -0.9702906183984602
C 5.459451381812412 1.3871818405868575 -1.1007509971981662
H 0.7451363721983595 -1.0264829563471178 0.7515560426340078
H 0.43167515505959136 -0.15960452819756427 -0.7529152050460762
H 0.6365813600356026 0.7318793342515498 0.7564765047638882
H 3.0956276293165166 -0.06281193817985786 0.8196489698094491
H 4.0938628240011745 -1.0674217556979582 -1.129376283844115
H 1.661127834493633 -0.7483952188446631 -2.7343748772249032
H 1.9737550573459284 -2.175638910203738 -1.9967344961775177
H 2.2336987413397114 1.293960121692904 -1.7886788488276177
H 3.943442555387659 2.7404954569886755 -0.6507073956847789
H 5.761717426352654 0.39131318527125064 -1.4227762259361931
H 6.25118956082317 2.100750465349636 -0.8945775721217641