16

C 1.054462142251855 0.05620819334639574 -0.05766147156477837
C 2.5501686001063075 -0.019503248630764577 -0.06461957895792647
C 3.309108646523166 -0.8068939185974503 -1.0954208900806879
N 2.7148424229203987 -1.5225296427503612 -2.1804549514748914
C 3.3422646351587626 0.7040904793346442 -1.147629616076894
C 4.533580799186474 1.4279409453092116 -0.8301270217658441
C 5.530195463982776 2.032460503708815 -0.5549587564856028
H 0.6229428974650552 -0.7632251033347952 0.533276052993853
H 0.6409459383598091 -0.005068315098532165 -1.0580866396730118
H 0.7055138854578198 0.9956297789931723 0.38490291398929494
H 3.0220299455870343 0.014123386718709035 0.9172098114483892
H 4.229181957575829 -1.2581833407971454 -0.7469855702964967
H 2.0359418792408026 -0.9636630633112165 -2.682895436338819
H 2.2432556668050974 -2.363747795683575 -1.853873868543769
H 2.735507766912839 1.1423166125890287 -1.929965717696559
H 6.417892388829585 2.566823116420893 -0.31585999750211297