16

C 0.9013991584550094 0.08012091704371455 0.038523557427557455
C 2.4092905138445464 0.11712311428611288 0.05617490977006295
C 3.1494678279711628 1.1453869499324525 0.9325665206686933
N 4.133563146352665 0.10292705214696896 1.259485105433579
C 3.1734567510406575 -0.9420801366203476 0.8935900582718502
C 3.6985501209214733 -2.1260416872602588 0.2377794228529831
C 4.11340665248875 -3.1036275218823945 -0.3194169219266391
H 0.49595611333412404 0.9593535118120797 -0.4782277850008306
H 0.4927051119162812 0.06570160807174132 1.0513272366563353
H 0.5436512512085281 -0.8003434798683706 -0.48880971267557577
H 2.820810535442772 0.1259357020673643 -0.9522531531997208
H 2.5279824605682837 1.4614355968030714 1.784414770134991
H 3.565890182345837 2.0311820208201947 0.4426625284557477
H 4.456482369421395 0.08023278252779001 2.2189909927153573
H 2.535218441586949 -1.2612045363890008 1.7319047570809571
H 4.487107416837102 -3.971612182142101 -0.8103653729315804