15

C 0.9254364035408277 -0.09305535277272448 0.1187655834798573
C 2.442682588127299 -0.08761824473125583 0.04363173413997569
C 3.209294229366409 0.9589219340163938 0.8920120065160184
N 4.14999317296093 -0.09157569689817556 1.301156575038389
C 3.2124348308914925 -1.136292804047795 0.8889435682640904
C 2.8850154607599947 -0.09620138282939357 -1.3450821079785982
N 3.211283895919536 -0.09599971382703978 -2.4466010503115276
H 0.6091559123816571 -0.08766138302343345 1.1563728483119937
H 0.5113207897956212 -0.9774290200282767 -0.3749485876232143
H 0.514296573012492 0.7892911379907815 -0.38091078891920155
H 2.5679153925464644 1.3385883580866895 1.6911875667466238
H 3.664240734139859 1.7999285739915158 0.36475044949265023
H 4.42511721514252 -0.094516999063752 2.2761831666490555
H 2.565449364923059 -1.51605493969124 1.6985564244024811
H 3.6613551410801612 -1.979565058937206 0.3557911417114964