19

C 0.5580936102491292 0.08677105855791925 -0.8412953559691874
C 1.8724034981624749 0.5349948200014107 -0.2618008696991238
C 3.1417775211706256 -0.2566085178264992 -0.4663040158264068
N 3.0803737189034748 -1.423172466154295 -1.2948572337109805
C 2.9752221085479094 1.1033685420020747 -1.1072759943203039
C 2.814955726215752 1.2058718892729066 -2.5933000144222556
N 3.7326376297626327 2.1417305901161514 -0.45433067258160575
H 0.003400271403424401 -0.5276921109375807 -0.11429219206634775
H 0.6989832417636416 -0.5209502687675882 -1.7383089648259507
H -0.07212385800263953 0.9367037713668332 -1.0961998464344147
H 1.80451986553003 1.0016387713364103 0.7176464938820706
H 3.814876245984321 -0.26261085565431624 0.3908505596896001
H 2.7470370600762943 -2.2199771595309548 -0.7734239808956177
H 3.993606999169404 -1.6562015246470163 -1.6627259828107275
H 2.3456658374772656 0.327819030755656 -3.0194183711985856
H 3.8010510482004682 1.3198363292978654 -3.0773989021204144
H 2.224868324415571 2.0918881052558884 -2.860661248230146
H 4.640379185459236 2.2370980522458455 -0.8789094128996607
H 3.256655711555228 3.031479949802596 -0.5527770441309547