15

C 0.991192775774226 -0.005023828086804256 0.10271779573550162
C 2.497278643024484 0.020032119132839733 0.120388064926572
C 3.2488081716966914 1.0589919564935868 0.9759051893240935
N 4.213609305962976 0.014923831381295612 1.3397990963932547
C 3.2544828925941247 -1.0330313571908545 0.9670949586777884
C 3.8083086182251473 -2.2046798301669503 0.292418092478283
N 4.2170168930585294 -3.1308010942219084 -0.2438138784775153
H 0.5975862555940415 0.8738888537277372 -0.41838114190441344
H 0.5819475215355597 -0.005232528139773878 1.1126186143286407
H 0.6201650723421256 -0.8915760883867735 -0.4185964077115238
H 2.907319579716937 0.020504829425714143 -0.8956086032581019
H 2.6231300648936915 1.4016794703119062 1.8166483213549993
H 3.677405954520839 1.919362683275768 0.4743389789013233
H 4.528315044948199 -0.005517479940156427 2.3014526579803887
H 2.621778172017274 -1.3814334127503178 1.7987634221578765