18

C 1.0110938347878327 0.19609249661015615 0.33361619441039764
C 2.4877386657359954 -0.04583880825289574 0.016811596128260047
C 2.8093610384740164 -1.5144770450649234 -0.3114766025341072
N 2.9623050543279055 -1.6305709792591143 -1.7586977959115129
C 3.329906995039949 -0.32845105002489783 -2.263023261665554
C 2.2237536188459734 0.6666266361075484 -2.4875098518600893
C 3.012776059831803 0.6972702476151555 -1.2109223991771163
H 0.7291716402857115 -0.3128723404509321 1.2560710671646755
H 0.3673222043678541 -0.18472541423174182 -0.45809815847489566
H 0.8033631102571965 1.2617024603637808 0.45029750131403856
H 3.069651132266848 0.27592922416547355 0.8837080117821831
H 2.0417403768910765 -2.216754648927744 0.042522671726604705
H 3.7497134974208803 -1.7990995844185365 0.17062290027137736
H 2.120008575795027 -1.9658081892545538 -2.1980252292939837
H 4.232602023627539 -0.2631100761949329 -2.857019551762342
H 1.2089940389798883 0.2922254942822052 -2.472978061568536
H 2.395669172260686 1.4671436168282055 -3.1872944929413114
H 3.678502178065859 1.5342095631794093 -1.0488975101837101