16

C 1.221346824597731 0.1325682127219792 0.5228538458616808
C 2.371693770920327 -0.0363036501269848 -0.12690801118676645
C 2.929571302816671 -1.3488922603067732 -0.6091261301897875
N 4.385671377393596 -1.1540211584239313 -0.6009796978406725
C 4.640595166921463 0.25366199001126793 -0.7607362649436281
C 3.9381031906345982 1.0199861756030757 -1.8388376960548671
C 3.3813056794895164 0.9956271389088783 -0.4388800906678765
H 0.5860645435256551 -0.705989026376209 0.7611008413666129
H 0.8925073897712066 1.121033366347779 0.8296690185509564
H 2.532120257410172 -1.5653870032077282 -1.6130715307427774
H 2.644951783602885 -2.1843313501345545 0.03221783740649972
H 4.832772085646671 -1.6978991077836791 -1.3259009068532914
H 5.601831885632256 0.604708569303223 -0.39954020411161106
H 3.406845509219795 0.4654490616031594 -2.612036043891879
H 4.379133000687976 1.9548682707494016 -2.1664000284142415
H 3.386439169151696 1.915756910027252 0.1364078532509065