16

C 1.0307109905900984 0.06143701725226989 0.3603740887272439
C 2.327994234704093 0.054398566230471096 0.10293784578287168
C 3.2037728765082014 1.272827302859755 -0.04874123730738653
N 4.332487244754004 0.7645650633285079 -0.824785165948731
C 4.583051704050703 -0.5919285047239164 -0.3493661219477662
C 3.204110128234408 -1.116391092610966 -0.08775318486098703
C 2.8621172367034107 -2.4066941400746384 -0.04830905476182444
H 0.4761324314914992 0.9963799943075015 0.4613699253964136
H 0.4579714953441961 -0.8555028108343066 0.4706443845909815
H 3.4940824976367835 1.6336778966768122 0.9526182386272066
H 2.7037210360804886 2.0910765229630917 -0.5633764614926642
H 5.146674421829413 1.3612369963969917 -0.7412047134052766
H 5.170041273092723 -0.6240360033954562 0.5865882130051027
H 5.129008671870772 -1.1741773336841326 -1.1036143897768333
H 3.583259130770922 -3.187184729288769 -0.22156962618590476
H 1.843822779004931 -2.714735076261232 0.16674476813089392