20

C 0.8591693231784571 0.07447089303229874 0.5185298775679544
C 2.1473346183900976 -0.19388035738683404 -0.2302226208205714
C 3.2482129957190873 0.8681047426204264 -0.025002330178891717
N 3.857104255906076 -0.006085803255872617 0.9696352755246831
C 5.28324482241942 -0.02717293715900154 1.1174704155121389
C 3.1220213379668027 -1.169894099088983 0.4568644413706941
C 3.864273195090759 -2.091990662785514 -0.4945391821496413
H 0.30633005123885965 0.900421836316585 0.0783055005872493
H 1.0715959834761808 0.31670716139619615 1.5620945278326248
H 0.2068304132706365 -0.8075636691043073 0.5077895851670048
H 1.9385840015885192 -0.43575624990161665 -1.2788282773556199
H 2.928551717662154 1.8422223091819665 0.36097351948203
H 3.862528998704531 1.027752111690593 -0.9188588667135861
H 5.6250637455341765 0.9478682926617715 1.4987561035143486
H 5.8362932466006 -0.22299262739806205 0.18786046427768718
H 5.579665726851682 -0.7792912321260612 1.858655300495795
H 2.679528435095927 -1.7701901888091793 1.2699119647272603
H 4.273994020816464 -1.546438613547842 -1.3464747322018769
H 3.1766423247829807 -2.8500670326032163 -0.8881590384346076
H 4.676694469936365 -2.6130471698757063 0.006070435984227917