18

C 0.8819389909282681 0.08350576902124916 -0.005204051315727387
C 2.3963489122089148 0.06076506835605809 0.06858201832323026
C 3.0229870097482126 1.1634234922366429 0.9128287284024879
N 4.359394731648465 0.655719604346806 1.1588821105478784
C 4.200012192083777 -0.7526318043159776 1.4874182385663193
C 3.0051050360064404 -1.1845736309103063 0.6835105087876993
C 2.5563383395381227 -2.4208395980732034 0.5664653364588036
H 0.5325565018098598 1.0319072004682068 -0.4139636812437963
H 0.44209930539688547 -0.0359551905518721 0.9964494554633516
H 0.4932977759262409 -0.712653719232143 -0.6395479196128534
H 2.8022738175329205 0.16048408769047123 -0.9411267058360201
H 2.4310237274298374 1.2923025046351588 1.8359061805824324
H 3.0593922938367606 2.128017853614138 0.40324932868189106
H 4.854169540660484 1.1648259806018393 1.873101946357433
H 3.993036466294094 -0.920715387311351 2.559912568055835
H 5.09948135958089 -1.3205417882243446 1.2352900872557395
H 3.054750166818765 -3.2548510928347882 1.0435180505832484
H 1.6640794306901856 -2.656440183937634 -0.00813881416605107