19

C 0.8855471075667094 -0.083181554509726 -0.1131010226119038
C 2.3719056708144213 -0.02734597386713629 0.1013061609107071
C 2.7647306080381253 0.06719344887699896 1.5669824181670966
N 4.14209686059363 -0.33747860055367024 1.838847658815696
C 3.248859200565183 -0.7829418186030905 -0.8685659115480885
C 3.206198547885568 0.7077322223149484 -0.9350963740058532
N 4.385246747954779 1.4601568471670694 -0.6290422666158916
H 0.4556613310545345 -1.0031286770404038 0.30151840910650834
H 0.6413173436460261 -0.059131805482320374 -1.1809141315233178
H 0.3885487225267026 0.7707197551401547 0.3595366903982635
H 2.0256144352788117 -0.5140705139690313 2.1379962711577165
H 2.6499842269626237 1.1024801753461755 1.8848401120194662
H 4.238613915503528 -1.3386952329243238 1.7449044034317642
H 4.379829144192773 -0.10430009461610168 2.7966763870522415
H 2.7699845552207583 -1.362189033857709 -1.646243697667393
H 4.174565436784277 -1.210977034907107 -0.49764638595644156
H 2.6399146522064494 1.1199134059742686 -1.762825361601116
H 4.8629910159618985 1.029926036814194 0.1543414275530758
H 4.124498101194253 2.399067473219526 -0.3405016607098075