19

C 0.9183504124129587 0.20279341369507492 0.8450164436228823
C 2.310565664488207 0.11192950951125415 0.265121837454011
C 3.4040970607166123 0.832807043557911 1.089409033288031
N 4.358546919572221 1.5256460350938355 0.25503307850416246
C 3.8164541887029704 -0.5475214115281605 1.6688331885965926
C 3.034671740649133 -1.2311607410103242 0.5248380873480405
N 3.9240545147831334 -1.5659673160263001 -0.5746763883510649
H 0.22121250508001833 -0.45521234814553085 0.31411832271328544
H 0.5323537888413437 1.2196067221374758 0.7814976508950654
H 0.90531494199284 -0.09619791695960044 1.8958426303643088
H 2.313722892916641 0.4091511165676798 -0.7882311872710659
H 3.005099614827995 1.5428277198432587 1.8290070282886461
H 4.747896505785617 0.8713013057721573 -0.4115534601628598
H 5.126386690588527 1.8781590995617832 0.8186990052312689
H 3.3755934442909585 -0.7537700517588563 2.6466615854680584
H 4.887248431207557 -0.7534488557302759 1.7060822561384157
H 2.3724626276108394 -2.0492496819714536 0.8301839426279886
H 3.3979422523476437 -1.8481245890415465 -1.3906348272637272
H 4.524012561082932 -2.346636398848819 -0.3230352142729318