20

C 1.0125917294448152 -0.050418544060975574 0.08744239232172088
C 2.5280163516458383 -0.045079613284481665 -0.03819862270042459
C 2.903396131249437 -0.04812647126113919 -1.512159433178786
N 4.3393159515955695 -0.06261800099012586 -1.744742163430586
C 3.2496486922381673 1.0347494382933349 0.7983758863260769
C 4.17595587198888 -0.04353452301534273 1.3896286355896073
C 3.2740792691567093 -1.1238023087974678 0.7899589044001324
H 0.5699920763982842 0.8281331256666044 -0.38380335113372344
H 0.7094173487345282 -0.0494667415800648 1.1411576732646926
H 0.5812627281742413 -0.9371875281432412 -0.38193416080927833
H 2.3977119041642068 0.8098386958596837 -1.9927575089120424
H 2.4875817774510978 -0.9547819192368949 -1.9617370897017068
H 4.748640749743963 0.8390293008108212 -1.529984629994875
H 4.543046432220257 -0.25159238113799476 -2.716300292762832
H 2.5901033186238918 1.4897400163049441 1.5453462856031503
H 3.7308667154123487 1.860230774345447 0.24863493403581052
H 4.294216017696537 -0.04271223653613809 2.4738649554048933
H 5.1742519488108405 -0.03932978511836431 0.934866332299924
H 2.6166708725143835 -1.5999653677430274 1.5300972085280868
H 3.774833913420491 -1.899633847257519 0.2078597545240254