15

C 0.9782083849776295 -0.07728694404215249 0.008645664213341248
N 2.4178679383702852 -0.10504903752428672 0.014152894363300073
C 3.240055341449881 0.9736030493817751 0.026364316584068796
N 4.497135507423092 0.6361729686945048 0.024283954333014997
C 4.49621310178949 -0.7297246481264379 0.02084990317578625
C 3.217252872704058 -1.2227824657089954 0.019578789985600364
C 2.6716613046624986 -2.598542916353714 0.005554382145131535
H 0.6452181523635312 0.9659828228586099 0.012135049631364095
H 0.5658150330462174 -0.5663692280775683 0.8990171621198321
H 0.5754222638123428 -0.5597802738166772 -0.877501530951181
H 2.857255167398058 1.9898281378862257 0.02601514736088046
H 5.410960008204715 -1.3038707490275476 0.017850558239620007
H 3.5014381186906376 -3.3162813958319326 0.01325503458853036
H 2.063312381730978 -2.8064635117141417 -0.8802399651898539
H 2.0592854893116463 -2.8094140561831464 0.8921643152238616