15

C 1.0228696797681909 -0.0774526838305699 0.19122529129170576
C 2.4981068239718494 -0.07968215226227668 0.013101436087248376
C 3.307284274168496 -1.125409822669206 -0.11390991912567361
N 4.644925394344091 -0.7218735438603232 -0.27384834857299717
C 4.75175173911019 0.6546729854865246 -0.24548762856903453
N 5.782949161427994 1.3845454228283622 -0.3531442848343072
C 3.341267318786363 1.1683775531254 -0.05345773678358274
H 0.6343497011141553 -1.097968653330531 0.20998878652840391
H 0.5201507349757866 0.459764522503819 -0.6150985122614339
H 0.7303397407024393 0.41020860530523084 1.1232038224388783
H 3.066061001632827 -2.1835082010104765 -0.11927139165015527
H 5.4149350706301975 -1.3534517595438387 -0.3871587725181539
H 6.637396500876693 0.8395388827089882 -0.4661875494152008
H 3.0715806034292896 1.8170622246102939 -0.8894689182494784
H 3.278282865789862 1.7707918796095745 0.8505543075942437