19

C 0.8888571701324756 -0.10066926873731952 0.020869312847146437
C 2.393877430833432 -0.0008344129860666065 -0.10513259463797116
C 2.7830292264842664 0.049904763945560135 -1.5808576416124112
N 4.206792144131792 -0.15830440036311721 -1.799835762550338
C 3.082066158273564 1.0978275070818515 0.7401683277093145
N 4.102126858640884 0.12199891552386857 1.147528156038353
C 3.2272248270794175 -0.9978547919154993 0.733813941557036
H 0.38648934946653785 0.7255113020784457 -0.4852158032812259
H 0.5787124714341787 -0.0803070900858075 1.0690642415016747
H 0.5099983096509632 -1.0299223877389536 -0.4091042428673627
H 2.4086605528345313 1.008596425257663 -1.972603840493204
H 2.240392632067286 -0.7464530007342433 -2.1075047090139285
H 4.755948798640562 0.2830286639665863 -1.0604555896894627
H 4.50387621326052 0.2235840407901029 -2.6845802319763177
H 2.43069148735389 1.453220561740392 1.5469890882147725
H 3.478305474655527 1.9617428578463756 0.20026975612635908
H 4.3673951464122585 0.1303852468614165 2.1204080345178093
H 2.6378456429675707 -1.4270404052221457 1.5473107561297927
H 3.7400189353229627 -1.7960452589752973 0.18865268421574008