17

C 0.9929510286851926 0.03905404591379678 -0.4794949753573777
C 2.389989100368558 -0.11967958787742308 0.08615819287605102
C 2.6404954528683713 -1.4098853393709758 0.8696533839287841
N 3.6344217936780727 -0.9953673040323601 1.8573753962720074
C 3.7353725285506023 -1.7902843921498388 3.053043820931284
N 3.4543544063576728 0.350284453615645 2.106482271456146
C 2.7902509375090507 0.8706950631161774 1.1501229388696244
H 0.7782542669279058 -0.7372818881784676 -1.2253685948100368
H 0.8758779529467573 1.004713471940327 -0.9771694457003562
H 0.2489866742067541 -0.03427119821150318 0.3086816004130214
H 3.1228145602863138 -0.038479181927546735 -0.7358165323431014
H 3.0125375172460096 -2.237379141721562 0.2600786831962127
H 1.7100889414697475 -1.7263963455864637 1.3668113034798801
H 4.065891250373715 -2.795362418060406 2.7784822415905723
H 2.7715290246386175 -1.8705451342598467 3.5803551630485195
H 4.464684286888375 -1.3445011472062454 3.720092214337952
H 2.611866365665041 1.9354542096804277 1.1215597289765025