16

C 0.8919114450659608 0.07633665150811371 -0.07949647098644098
C 2.379413683810683 0.046175408994686494 -0.0815364204107116
C 3.224739229943875 1.1307234693057753 -0.07596409639188621
N 4.509466326398222 0.6783044488818264 -0.07003325126014784
C 4.507699369740796 -0.6904970845412098 -0.07264778465625323
C 3.207427058037522 -1.1146316254141355 -0.07572595277259532
C 2.7329954313229483 -2.5312257174233372 -0.08612517923612628
H 0.5120316430166797 1.0966756397766908 -0.07955665001421437
H 0.47496914563113724 -0.43922976646923306 0.7937734365410047
H 0.48144629860924193 -0.42589467081721 -0.9660650010063393
H 3.0003044584185745 2.1830776437301007 -0.0637163119507716
H 5.327006416663314 1.2526683261142673 -0.060115695122618155
H 5.4264079405517975 -1.2504637371657694 -0.0740407928733939
H 3.575547675319492 -3.23260599175115 -0.08235607298620647
H 2.1203027145304487 -2.743301568816336 -0.9646482455398953
H 2.1173946059481126 -2.7516020764362734 0.7959785641714646