13

C 0.9748901022776464 0.0713852338411683 -0.10083888199895852
C 2.286092081662171 0.10204459405216697 0.12291088967839639
C 3.173966500591298 1.263802322995238 0.02327361346669202
N 4.377508830298931 1.0321391432747646 0.3744538138356517
N 4.485567312939786 -0.2923698267151893 0.8826768501806976
C 4.411779593321288 -1.241836204304378 -0.22403833401966405
C 3.192892183964651 -0.9561629625255222 0.5876185409986809
H 0.43464404436303855 0.9740545250939547 -0.4015458594407378
H 0.39349587360405797 -0.8325191500212832 -0.00793958928897495
H 2.8855215701097126 2.2413720291304595 -0.3562976832340842
H 4.934521914041645 -2.17990846505727 -0.0546914335815654
H 4.471889147724425 -0.8361917186339858 -1.21987833583902
H 2.850888955554477 -1.6976673568022596 1.3008273012031144