17

C 0.9869437707252889 -0.01693558585200206 0.39660232246402377
C 2.421445334824823 -0.042993332563822984 -0.09535824877871568
C 2.7450262804059165 1.1632295229996166 -0.9749891475162218
N 4.1338705039047685 1.0883591065914804 -1.3751623141646208
N 4.56328703570564 -0.04574352788058488 -1.9892304947977169
C 3.942865120989441 -1.132072788747457 -1.7734370452823558
C 2.740950067415067 -1.3048003732328897 -0.8889770342883495
H 0.7874766336796267 0.8685899919282484 1.0104125819373713
H 0.7691626563130185 -0.8983605244313599 1.0131638761109731
H 0.2921179810411052 -0.020230947507166093 -0.4451874174870002
H 3.098949907069233 0.011826219380013495 0.7668021236148463
H 2.585194367485579 2.0980599820552484 -0.42881622411079157
H 2.0704782041565934 1.1522292227574877 -1.8489663169976915
H 4.472596194820992 1.8904842229761043 -1.878124279526628
H 4.350977804108811 -2.0081115563713747 -2.259529614467895
H 2.9048469801030037 -2.152352942302385 -0.21117382214306415
H 1.8799514279237004 -1.5889551384564675 -1.5005408096681354