18

C 0.8328652157476779 0.051108931645208876 -0.18089939830572901
C 2.319108186721659 0.18853803802139554 0.028046628297718222
N 3.240226135295016 -0.7462141915649573 -0.6242614236563411
C 3.193283447140614 0.6559164658834292 -1.0620870977361105
C 4.440328698958425 1.470192130256046 -0.7982477714292405
C 4.172442598983079 2.934624397922985 -0.8131818496123093
C 4.399436472271579 3.768703752815712 0.1945469219253316
H 0.4293262863886759 -0.7753061291317365 0.4116724045785443
H 0.6013488651843815 -0.13799646944154467 -1.2302133848298513
H 0.3154286978506816 0.9671712092347218 0.1242261799506319
H 2.6166466617106527 0.429779466389605 1.0462828772616743
H 2.7298337676754603 -1.3312746512352047 -1.2854091630266926
H 2.701924783652407 0.8612050932271023 -2.009431014825593
H 5.185743075695647 1.2140555005559646 -1.5631835846466895
H 4.86097179886937 1.1660824573665174 0.16902738283181176
H 3.7529111395236043 3.3409729783145625 -1.7418651391647317
H 4.82414217594854 3.4209645927371306 1.1328124329287588
H 4.185547332694972 4.823378547213808 0.11724104958762269