16

C 0.9734596028801289 0.09368171265807612 -0.2527682000946096
C 2.4583392239209796 0.21639849833003288 -0.08178175042885397
N 3.3611117090953533 -0.7109103958128415 -0.7578286262348359
C 3.3097825444576916 0.693598634870259 -1.1789003164666063
C 4.57212499000872 1.4835309136326937 -0.9360906695467336
C 4.341001899323613 2.92274623577607 -0.9194428514059364
C 4.126004526262458 4.097954585615172 -0.9106284073558045
H 0.5776129135695617 -0.7244780554085419 0.34585379258401483
H 0.7111408551805052 -0.0882601505758603 -1.2940284087298877
H 0.4685762387322453 1.0079395962142348 0.06601021415948646
H 2.780970637518172 0.44859553531076546 0.9380548086375728
H 2.840134407346736 -1.2922094580189836 -1.4092308000677973
H 2.8095586972147912 0.9232492369124343 -2.113030685968861
H 5.308780023862756 1.2388997434795899 -1.7074436648214144
H 5.010984343339941 1.1612334191221887 0.01615348433616958
H 3.951571936154036 5.145291640205894 -0.9088087868180315