19

C 0.7444141379189879 0.33213633570449286 -0.8112097242497897
C 2.0711871383034035 0.09334968462258393 -0.159747183459498
N 2.7799979007067113 -1.1690653601517087 -0.3820217035723442
C 3.325992052745397 0.06862290395636973 -0.9521811294656501
C 4.634547759010461 0.552904548866637 -0.40180491488048725
C 4.8430333466232245 2.04529631418241 -0.606619583086075
N 6.166131756354991 2.4369113053625426 -0.13395982480067792
H -0.055576394096564535 -0.20847099184394294 -0.29630139186204923
H 0.7538245785732903 0.017681815904853865 -1.8552975764515087
H 0.4855255795459124 1.4021142248984877 -0.7901980281333995
H 2.1519207074504263 0.4343769786108665 0.8699540330505333
H 2.3076235217113648 -1.7077854396970942 -1.103198997713925
H 3.1874500584595653 0.2080264220957171 -2.0176918484205006
H 5.459764700496356 0.006719328456475944 -0.8830407009239533
H 4.676258403916048 0.30668750897582475 0.662102903169544
H 4.0127916551493845 2.5884946452095474 -0.12982916917568743
H 4.792060564534189 2.2702222849718003 -1.6793384065627097
H 6.241669869143428 2.2700496492481084 0.8583628848914402
H 6.305133434476906 3.428532028039638 -0.2672959877901835