19

C 0.898297852764128 -0.47049108939014955 -0.6736034758558743
C 1.4612580039182659 0.8994014045433337 -0.4646878911190589
N 2.747757407891763 1.1030808768574931 0.20752051446287112
C 2.6068417191457534 1.4506367498342758 -1.2158529668519467
C 3.3433004512365447 0.6389412458017966 -2.2536223671363187
C 2.658579956346792 2.943815571895555 -1.4496423128308185
N 4.022767927820288 3.419961009373591 -1.2929562968510924
H 0.48436150465383737 -0.8573314165441741 0.2616589785513144
H 1.6616999303860933 -1.1768723864591373 -1.0074661163570708
H 0.1054038014472678 -0.46340488576909344 -1.419750234201199
H 0.7117152628878789 1.6293812887650958 -0.14967780010807655
H 3.2195698024206245 0.21394796458477472 0.28678228952278345
H 3.3905201640456637 -0.4143580242642251 -1.9889136702548538
H 4.3579268507273605 1.0303821265859359 -2.355121283932959
H 2.8502320318918692 0.7239770111734872 -3.2297937314946354
H 1.9459114420923427 3.4176560204632076 -0.7530955449417012
H 2.32341250872408 3.1684887411734586 -2.4696086881322112
H 4.308569781585249 3.266450629112944 -0.32879152809770934
H 4.087147212901688 4.410777862039118 -1.4675156437067127