15

C 0.9537063598740981 -0.054779614944577316 -0.3332225207194873
C 2.3886828773169984 -0.01721745832256212 0.05288415658967583
N 3.063058193310352 1.0633797317641211 0.1926972779857493
C 4.4224730399225685 0.6694275485462571 0.4665769044482197
C 5.130816682355022 -0.10793545806100362 -0.6109379316369475
C 4.449726024789635 -0.8435766441049171 0.5002000706032043
N 3.0660608435671706 -1.1826192236630648 0.32487288086313665
H 0.5602583981963066 0.9578263861496497 -0.3453304220740457
H 0.38184544599100906 -0.6663114536188325 0.38045222271462853
H 0.8247067993634207 -0.5032531530433937 -1.3182566489155867
H 4.989094861664639 1.3003031800071352 1.1290878861071352
H 6.2048517432540455 -0.09303138433744922 -0.5954747988354386
H 4.6788286861695525 -0.12515988998036903 -1.5995681329290095
H 5.0168899299109775 -1.4365217553979794 1.21086365752276
H 2.7958300308464765 -2.0508422035293936 -0.08786152762258351