20

C 0.8713115905564293 0.07355417409434445 0.035012686611173786
C 2.373634480953915 -0.05207685427915786 0.04176130162563938
N 3.1155518580816324 1.017404907458675 0.7493995232047875
C 4.023351485805716 -0.0015292869971256203 1.3126110453573274
C 3.0974573463809865 -1.1525911391876766 0.8645780039191772
C 2.276274224140363 -1.697870181981329 2.023794074887358
C 3.7196995179300174 -2.2759847086742666 0.06458291220920197
H 0.5715169529358182 0.9983699006435124 -0.471392240226062
H 0.4595111167417969 0.09498805585157029 1.0502790590328328
H 0.4052545338764474 -0.7643446850824278 -0.49571980665782656
H 2.7248850565082057 -0.07823308729890736 -1.0033922874744003
H 2.5459184273470576 1.4236266189389228 1.4821034245478077
H 4.209441911745083 0.07364040939338977 2.389239599703157
H 4.98927613964907 -0.001971794226979768 0.8039099311635044
H 1.8476108600458205 -0.8923304084004271 2.6273434033856753
H 2.9121985542137483 -2.2989715011003575 2.6755336609020075
H 1.4563227263199834 -2.330401581845057 1.67173206485998
H 4.32926817806161 -1.8839238116680226 -0.7618418752696137
H 2.955093613820999 -2.933407533923656 -0.3587938337616829
H 4.374457984170371 -2.8862597074102063 0.6911074801531515