19

C 0.8892026586044273 -0.225577983428694 -0.7363829013152082
C 2.112376056093708 0.47699024056717865 -0.17462178568308367
N 1.9417103213932623 1.0489333846978106 1.1353300349832596
C 3.4703844010297424 -0.11280373574807559 -0.4447432548591541
C 3.065345958281113 1.1771399425439022 -1.1158272786268928
C 2.8047926066771636 1.1803570118265196 -2.600198973955607
N 3.7189639273353725 2.3528461994003425 -0.602322212149962
H 0.5488465552141922 -0.9827785965037298 -0.023176919636737958
H 1.0743066446903733 -0.7182936417344499 -1.6796174796914127
H 0.061188585998937416 0.48614228844260926 -0.8784967722677254
H 1.6795655044072009 0.3292985161029193 1.8003709125767875
H 1.1960252352902723 1.7293777743711178 1.134310934175982
H 3.5302679215159656 -1.0051152378655956 -1.056361179776582
H 4.18777399146843 -0.02982960086207935 0.350155820063185
H 2.3854159234383734 0.2462958943113321 -2.970340314682571
H 3.731461660480523 1.362388498913198 -3.137482416624463
H 2.110182731254976 1.9859252866825756 -2.873729591278178
H 4.604116887999102 2.4965697454876983 -1.0895568020335062
H 3.160956448026465 3.182427000689479 -0.7644711322234847