15

C 1.1634853435632124 -0.06889939995968247 0.04044751854887751
C 2.5997536167047826 0.30365923778382525 0.05083819512127699
N 3.082278240010194 1.378450068056103 -0.415984010344217
C 4.523558989115501 1.359463783225457 -0.193160745307835
C 4.813780540410375 -0.0025269083599956843 0.4002663974296647
C 4.407762395465223 -1.1870935377279277 -0.3588017609681769
N 3.5073111666715464 -0.6250024080973103 0.6677686290334586
H 0.5863526384860565 0.7036274517674349 -0.45842430417708796
H 0.804544410512816 -0.20002915845887168 1.0663982176745666
H 1.0243657834498436 -1.019674636981328 -0.46748967690899706
H 4.790033103065686 2.1601588413436534 0.5048082257964576
H 5.056150294422643 1.5642987459069226 -1.1284313730207143
H 5.5534862736880894 -0.10554974590841028 1.188966628859466
H 4.824295939985141 -2.1586455303606717 -0.11711307346741881
H 4.11447278172067 -1.0550627984822085 -1.4028926520687737