17

C 1.1433836530215493 0.28692954885706856 0.44739309398480775
C 2.379842601598977 -0.26700547551496456 -0.22170015770062454
N 2.191239626149623 -1.6439261086755075 -0.6785377394421267
C 3.049085199821173 -1.8539961503968558 -1.8314828665063074
C 3.2679535306144993 -0.4995737983942505 -2.453298823704766
N 2.091764204158213 0.3275170588134401 -2.6833296924753633
C 2.8508377928237305 0.5043028334029441 -1.4522948691157875
H 0.84500060164143 -0.3508198589847514 1.2824124435718067
H 0.3075759936933695 0.34165915707473904 -0.2645646242923503
H 1.3210992543578002 1.2947197672806041 0.8246794012691899
H 3.2127026105619976 -0.24453456137673404 0.4964423679452933
H 1.2217652033555153 -1.80250953737034 -0.9021192359146326
H 2.606134889843511 -2.5894872926367456 -2.5074637176175387
H 4.0189558972136155 -2.266095930910731 -1.5152014804073872
H 4.095321130133148 -0.33596990197449295 -3.1423135544343497
H 1.243614334616341 -0.21309542213710797 -2.498613155852193
H 3.3377973336984743 1.4617838510828105 -1.3276900288602318