20

C 1.0596642639438332 0.18171605886246345 0.5910562204066844
C 2.344812188811501 -0.19516453882914614 -0.11906285537461579
N 3.421210464720516 0.8077898100218561 -0.04465080015487274
C 4.1008583683501865 0.058025883161420426 1.035613989935377
C 5.603381116398713 0.027293638579731595 0.9564700625215079
C 3.255194540285634 -1.1850902950663773 0.6382027033890881
C 3.9404797012902897 -2.211019495754406 -0.23241036405156143
H 0.5756390796442717 1.0317011681655905 0.09582700384162604
H 1.245174061072633 0.44472889256497455 1.6331465649354577
H 0.35161049036150216 -0.6520251270888165 0.5794541916942535
H 2.126659905434923 -0.4856785757627238 -1.1537436245148702
H 3.132711897214704 1.7518239155465376 0.18802037049466983
H 3.8030161657216666 0.40680496907634023 2.033082708600027
H 5.939982455370865 -0.3153502314290957 -0.017357008238569727
H 6.020748668766906 -0.6367172918682503 1.721239159637009
H 6.015656734003378 1.021637160507516 1.116420268731235
H 2.771132168942251 -1.6760036035865278 1.4932925310808152
H 4.386549517755417 -1.7477019545422963 -1.11221898779941
H 3.214675703472595 -2.9485815389691927 -0.5791116423221416
H 4.719321263972612 -2.742123339519642 0.2978280219244339