18

C 1.0500280658799688 0.22887466279088664 -0.3003277600779547
C 2.484034527636267 0.0630376296439601 0.18651018284769247
N 2.6185522249022166 -1.1160100265247248 1.0455060228194581
C 3.543821664893113 -0.8178354326009935 2.1418583897743706
C 3.5653427691110307 0.6733928921428517 2.147800587983626
C 2.9774891866752267 1.172604643321741 1.074636806760306
C 2.8334631591444404 2.607495478133515 0.6892276499350893
H 0.734172006285875 -0.6536250333326351 -0.8638984035299889
H 0.9551877367236898 1.0938030164769217 -0.9580052155689452
H 0.3733270775746748 0.34531492426087157 0.5435903099898831
H 3.135497706291602 0.007065057561886013 -0.6953782332254038
H 2.873891027420505 -1.9489440542601948 0.5390556817185611
H 4.558407164078773 -1.220686401369629 1.9811618526082981
H 3.1844337891125956 -1.2401771581023733 3.0844837359355433
H 4.038708185451335 1.2540062713010736 2.9378027013973953
H 3.312860576192428 3.2553784541242785 1.4183698659203345
H 1.7896823371140227 2.8917131504062814 0.611671691586114
H 3.2962855398548414 2.796395184560139 -0.2852408896710784