19

C 0.8594642610961011 0.02554564430385395 -0.0011480893664822971
C 2.378619390551669 0.061980914381815216 -0.0578415246897074
N 2.91648457329474 0.08615053304996557 -1.4131095382429912
C 3.1040439636640214 1.1266225655258224 0.7879760552297854
C 4.156421384256814 0.0686786386793276 1.1651129174181336
C 3.1542793016612283 -1.0203421538015867 0.7676247484536538
N 3.6963090994118137 -2.2087311729935415 0.1621606171237469
H 0.4274122396109603 0.8933064389150983 -0.48780966826895966
H 0.5053833019897587 0.00017964326025416647 1.027150706331478
H 0.475560199073932 -0.865452804914765 -0.5122220771410002
H 2.680369400201642 0.9647342137639373 -1.8619149134307627
H 2.490633383991383 -0.6440839341146969 -1.9724215253113775
H 2.497510494890295 1.4347191412426437 1.6409004680184391
H 3.4508119135836863 2.019475564488904 0.2601699612023914
H 4.534360084239561 0.05116001938261123 2.1914912565884004
H 5.002963215602414 0.08300069527328266 0.4735184334140281
H 2.547303516348673 -1.3134304632780818 1.6237011555043668
H 4.1614194413582695 -1.9713401684529808 -0.7102714064239296
H 2.976229698015152 -2.8903970970149397 -0.03746198937945522