18

C 1.0242519388725895 -0.08083858603512482 -0.06984184507796524
C 2.552681096642525 -0.10470346015522346 -0.06572239861525843
N 2.9970644605790424 0.10886810264299161 -1.4330677389626
C 3.089989397302351 -1.3878407167269857 0.629208475241075
C 3.3875049148130945 -0.9926817056834549 2.075457027265526
C 3.5349303802778587 0.49746297654408106 1.9987149750007935
C 3.0909604895832885 0.969732324738341 0.8423963554446148
H 0.6270399015541664 -0.8496320111195793 -0.7271659137555159
H 0.6566235178499803 0.8890385575483941 -0.4217974138916888
H 0.6365287248110568 -0.2512748052239582 0.9363676858465345
H 2.622613440918454 -0.6134544605210676 -2.0451314837641568
H 4.002072280341837 0.05543985941642634 -1.4884113746352412
H 4.026619795870413 -1.6707522742759138 0.1277219280671532
H 2.407375557261099 -2.2308607959623337 0.5342520028537817
H 4.283649602430394 -1.4863726285613899 2.477534298441618
H 2.563822040512956 -1.26273893806772 2.7487555967995356
H 3.912245053766843 1.1021881543089849 2.8130720145302717
H 3.044399783576246 2.0185123826557625 0.5523391074418852