18

C 1.0498953414088683 0.14037590263781335 -0.02611176440269686
C 2.5614387757468084 -0.035244868205733776 0.07600852474818069
N 3.256317484832159 1.1798982891002978 -0.3497012492721109
C 3.5058882765566928 1.2197143537287565 -1.786159572145127
C 4.332206984393645 0.05513312199477979 -2.2866076974851155
C 3.8410615680143136 -1.2319789402769987 -1.6986698051798184
C 3.0244591326367978 -1.2683697688285005 -0.6548527771692696
H 0.7324608095300935 0.9841059950766826 0.592184498803403
H 0.5300937842786715 -0.7633843942389164 0.3046949769546077
H 0.7478005762685139 0.3431678624541005 -1.0555625734702345
H 2.7993426844490488 -0.16619071929347587 1.133188803916592
H 4.147813658411288 1.2430041148338733 0.1389627963552903
H 3.9874466272079174 2.1737473570052943 -2.0288163480773806
H 2.537091810446107 1.222993470994486 -2.2970674784470306
H 5.392344776874877 0.19535271410091176 -2.036951558758717
H 4.293984900674374 0.003113424967149801 -3.3874499627022425
H 4.152685326104867 -2.1605742587683947 -2.165433360385073
H 2.6571745406676137 -2.2241884977570296 -0.2838021453145695