17

C 1.1264122200520077 -0.07081766288323328 0.1256234624733951
C 2.6070301244118412 0.014586716080218769 -0.08722360744980898
N 3.179641120652972 1.1488339954467854 -0.14684209530866213
C 4.616831124697576 1.1704263168175193 -0.34250705629537126
C 5.319269244246197 -0.05945525918551814 0.2413268096015393
C 4.671229467055414 -1.3166101818933 -0.32361013310373266
N 3.2357063887965336 -1.197462460190025 -0.2113393247167762
H 0.7293006638178807 0.9415857566380313 0.2000370183853252
H 0.8899399006524628 -0.6208781366306869 1.0418898406080146
H 0.6481624756081705 -0.5886389476824199 -0.7113750037955741
H 5.011220600674127 2.0814753747733805 0.11747905638120813
H 4.840628141467345 1.2462491608783672 -1.4154515103358494
H 5.208862160351689 -0.04601153183822191 1.3265831833631432
H 6.384068245977223 -0.04366168267921707 0.01864234085543664
H 5.014622518642854 -2.2027097637181443 0.23366215031068832
H 4.973669491950536 -1.4495738531940245 -1.3639107556308587
H 2.6954270142066172 -2.0270163264606698 -0.04747855616920503