19

C 1.0345598739567106 -0.08183271993357603 0.08125619569178635
C 2.5569945299161 -0.038678550442301576 -0.04925765167294707
N 3.0015256695002046 0.1030850604370697 -1.4408865159158148
C 3.1806992339371822 1.1063122921035495 0.7664420139763971
C 4.511456172839743 0.5160875268205398 1.226583312147482
N 4.209772565089637 -0.8789281240511572 1.555415969488375
C 3.2341430280565584 -1.298152136451957 0.5532618076189778
H 0.5857060798268148 0.8385394847971229 -0.2953721620143219
H 0.7238844669937785 -0.2062107336933307 1.1218821830176733
H 0.6264066551324949 -0.9189376761220319 -0.4977132987533911
H 2.536955729214313 0.8812293490784701 -1.88092301715473
H 2.7476141427388376 -0.7226484912155215 -1.9707983777766844
H 2.5625530159395438 1.332908072433976 1.6306248248119992
H 3.2857236187186594 2.0130515674794385 0.1659728472045668
H 4.957636322325786 1.0339843244694138 2.074323116993606
H 5.228730372899869 0.529813686303774 0.39976917022424585
H 3.773967771575766 -0.8983745273627631 2.472696450125318
H 2.512401986408987 -1.9858718260236619 0.9947545064341718
H 3.760070107924754 -1.8330531594844914 -0.250768272596041