19

C 0.9533287083145301 -0.010371556755155886 0.07669163154529682
C 2.463806746456916 -0.040943603383809604 -0.04957200054779494
N 2.936293761035092 -0.06666900431160387 -1.4288305806432076
C 3.2568461984733483 1.0425136021308163 0.7275695805523721
C 4.274831154271109 -0.020282304376149998 1.1569324014687101
N 5.495642556959073 0.03837213203335505 0.3845691058551391
C 3.2302684053663695 -1.1054130352221643 0.7712348913275422
H 0.5373582741507936 0.8701397632355707 -0.42830233917492677
H 0.6318058536640124 0.004530007836610816 1.1242407399174688
H 0.5120654276550746 -0.8988917890379088 -0.3945977106633568
H 2.5916957536521283 0.7379933599921766 -1.933106168632841
H 2.5759181201819037 -0.8925546572884168 -1.8998048394642453
H 2.678339018765008 1.4371195515969795 1.5689224724970707
H 3.64402507722979 1.8709586722721887 0.1372692286040492
H 4.5375052979155495 -0.010254732918242035 2.2219710088983935
H 5.260991918834573 -0.014857013483681583 -0.6042707882389257
H 6.090769128373585 -0.758474005446195 0.5983525316254927
H 2.646653084967198 -1.439426796604119 1.6300773783333937
H 3.594352977996138 -1.97294412681288 0.21203931506661147