15

C 1.0699236796658151 0.15080604889753732 -0.23353933079636346
C 2.542835281632473 -0.06301842122337539 0.054165131224347386
N 3.148746135933901 1.1546883562986674 0.5962305954933658
C 3.5358710014704045 0.8965972060511107 1.7717040011175116
N 3.3360917774189027 -0.41072827878948864 2.2958696020209812
C 4.170662053119674 -1.371610745487274 1.5541082883129727
C 2.782759889984848 -1.11526158441371 1.1243490183667535
H 0.9337423727311529 0.984429506069738 -0.9210981073540508
H 0.5318792176529981 0.38768021732709484 0.6968801403493416
H 0.6245312019885613 -0.740524795170328 -0.66297125362505
H 3.0467875916044465 -0.31167185347521814 -0.8856596560794229
H 4.014868218722646 1.6350019512594807 2.410141064818892
H 4.3992986184542975 -2.275898360618653 2.1094706912361105
H 4.973021659610592 -0.9672374665538882 0.9515489517455604
H 2.0119915656575134 -1.8510646409246831 1.3397863551487412