13

C 1.0257524037936674 -0.08698317955277311 -0.06818414306342178
C 2.5043598710293957 -0.09961535640934395 -0.07349890473871035
N 3.211632417639317 -1.1786779463392154 -0.07519448723145024
C 4.566815494102605 -0.7488123964746002 -0.07410846656911323
N 5.576931308967261 -1.5056795968541155 -0.06830158750306578
C 4.614440656846387 0.7237211398153188 -0.07252454729588285
C 3.336384974214142 1.130846770188643 -0.0659645855504063
H 0.642331336970919 -1.1092682375295018 -0.0716193750612692
H 0.6545745715542552 0.4488345281146008 -0.9505120231232409
H 0.6482876909778965 0.44329162804926187 0.8091451671349214
H 5.2648530402571385 -2.4763048346174776 -0.0759909153610058
H 5.5174914287900165 1.3051187639410209 -0.0709355794554485
H 2.952422479687562 2.148536561316265 -0.0710068991499295