15

C 0.8888394703650602 -0.056522409020287365 -0.17577584939777652
C 2.3581132052810445 0.050284617185740996 -0.12885648055426877
C 3.1671586035377164 1.1724530056209301 -0.1141253308255884
N 2.683701734368275 2.4984233788192034 -0.15660736818665838
C 4.519567466332098 0.729711544022378 -0.09305385989685241
C 4.500503860582687 -0.6396570684370013 -0.08643317392189934
N 3.1936152783590326 -1.0361667320781611 -0.09604196859111341
H 0.4707383153766414 0.9011410309298725 -0.4862054613639984
H 0.4496654775095287 -0.30390267014334815 0.7955106372540138
H 0.55132802947478 -0.8190906762945379 -0.8907562067910325
H 2.2780073690754077 2.7880250726908424 0.720521298032192
H 3.422782471416905 3.1463150056034634 -0.40000135012396437
H 5.39729132460008 1.353749598580044 -0.08469433399901416
H 5.310436188352702 -1.3596489308838573 -0.08384967959381952
H 2.886720831996877 -1.9920058183346372 -0.10280187774819653