15

C 1.139799369429315 0.19638054959497706 -0.16361327932727415
C 2.558784142063528 -0.03895323481952484 0.19541799281862104
N 3.3184517617748837 0.9034058996082187 0.6055534644628431
N 4.619793269700677 0.4020361930390684 0.916449902897545
C 5.3168705462241865 0.046169664145293436 -0.31847562262003154
C 4.643659182582217 -1.0084327788149068 0.4689436702824365
C 3.2384905612977635 -1.3815383476031897 0.10394745742511344
H 0.8838763395973853 1.2424031312418775 -0.013945947672413932
H 0.48140075444700386 -0.4274903483221947 0.4472298627599124
H 0.9559829555828484 -0.07069549727279648 -1.2057697243677412
H 6.4045570513546535 0.12954293849251095 -0.27105951218517205
H 4.862203013366198 0.3797944904650035 -1.2465574021067274
H 5.241586900597039 -1.6795619151551193 1.0763770362622544
H 2.802649622682744 -2.088266064811751 0.8234563480121035
H 3.117479533662234 -1.8218484586806252 -0.8921512063038776