15

C 1.1349780969307859 -0.08952372277261807 -0.05630226841423647
C 2.5988869553797844 0.1110808656360585 0.09897972655547774
N 3.1785927890834293 1.2103408736232482 -0.21130063377258265
N 4.499439886329647 1.1557355338123585 0.18748977038305148
C 4.856718156634568 -0.18861838435896874 0.5577857051814264
C 4.600702973879355 -1.3029481615374525 -0.40178430965699613
C 3.5423986218650185 -0.9208112794551299 0.6030407958070888
H 0.6746600133137423 0.8018381058038158 -0.46798323186230273
H 0.6700625519074164 -0.312715593669 0.9042530277589664
H 0.9243253871626959 -0.9404136742239818 -0.7159509475116062
H 5.102863359657401 1.636650735008745 -0.45456872905857804
H 5.623558516966963 -0.2891635842004602 1.3105919247028914
H 5.138370571233993 -2.2266017106261455 -0.2171601261537413
H 4.412778821738935 -1.0749658506648552 -1.441995686761847
H 3.2524952887538534 -1.6082725205527801 1.3904733932829856