13

C 0.947041005377805 0.09639034957145502 0.09849237305995978
C 2.431961652750366 -0.004430579869116557 0.10048924768054895
N 3.205717041446688 1.018525946332975 0.10694927191224049
N 4.562528648305935 0.5789704887531176 0.10070657760761316
C 4.580912624757905 -0.6924584117710498 0.09629442965132827
C 3.226001515580513 -1.2395365361750093 0.09002547775355758
C 2.8310917281743464 -2.512908689269219 0.08789188742411749
H 0.661610894089301 1.1491552213580538 0.096695578349852
H 0.5155807589131087 -0.3936807646442133 0.9748420311527115
H 0.5186213383201638 -0.3832427959032391 -0.7927489048834301
H 5.5075669949852974 -1.255400293241361 0.10165502342323599
H 3.5401714167417215 -3.331094412163045 0.09198666610145471
H 1.775293514448052 -2.7714581640845255 0.08499012548641219