15

C 1.0407986133791047 -0.07392089825318468 0.04939969191526454
C 2.5147820483100243 -0.0035315746229522558 -0.09375022171801736
N 3.240926190641206 -1.0582893594201375 -0.2891827817193935
N 4.531453833312694 -0.70139507975778 -0.3846618216517183
C 4.748147621949732 0.7193679395888056 -0.24257587411696163
C 3.324412072655706 1.1986279300620344 -0.03869130414446106
C 2.9160773597863763 2.4577603656312244 0.14646530005793515
H 0.7049095449333632 -1.1022341481422495 -0.0351534958848272
H 0.5423541152683059 0.5255181367334624 -0.7225233926344498
H 0.721306938448911 0.32441199890464306 1.0236204479478976
H 5.214993283744734 -1.4117838514332042 -0.5409963034369794
H 5.20721468585959 1.14842126574121 -1.1437842275837846
H 5.389470274633246 0.9485617527680842 0.6115536331640976
H 3.5959320812680793 3.292087660303394 0.17071398129039309
H 1.8587230058452457 2.6773217780274696 0.2832593500639217