15

C 1.0414185651217984 0.1396889826489708 0.05251618370905312
C 2.50948956158697 -0.020509939311371628 0.06596595617903543
N 3.3103103530349802 0.9854114800545224 0.07161228587258196
N 4.649604161186584 0.5199699777636895 0.07372424124198633
C 4.653823463307601 -0.7686303326173547 0.07316853466695156
C 5.904552409565229 -1.561495914740313 0.06875719323780488
C 3.2601470053805626 -1.3008860154283797 0.06430290510395958
H 0.7793512094083113 1.197525236753423 0.0590400813941665
H 0.5866459203822821 -0.3470927906249809 0.9275332353275271
H 0.6024107416417814 -0.3396260266035522 -0.8348678671886799
H 6.770165646234607 -0.9058759639031406 0.08214274563227808
H 5.961773634008446 -2.21241287223522 -0.8115346662694722
H 5.951642076117509 -2.217782691960944 0.9495212425211641
H 3.043290984932476 -1.9257972529630725 0.9330377439177779
H 3.0511567932438273 -1.919043014485654 -0.8226965217435627