15

C 1.0329336373368454 0.000737368497877013 -0.0893413218448166
C 2.5218286684481437 -0.07301761589005143 0.24203328183458944
N 3.3000064405051734 1.0351247308179508 -0.28187832125271683
N 3.623987623309757 1.117181384424527 -1.5866049423934743
C 3.7870737706541613 -0.0060923165124099656 -2.2055395538252816
C 3.6944038102183367 -1.280865049308029 -1.5333115666612263
C 3.148763765463862 -1.3210593440695604 -0.31015430399424676
H 0.5803212971909711 0.900864672752942 0.351493974529973
H 0.5162099396213532 -0.8659546275816219 0.30957827321679887
H 0.8863590491115633 0.026392495873935568 -1.166488780423415
H 2.6469765464681476 -0.05065991076208515 1.3359693863250994
H 3.070463052079859 1.9515041088444225 0.08163375797690753
H 4.098979747012729 0.06353379220572117 -3.2438264303802273
H 4.102667641183289 -2.161955667440716 -2.000433350665849
H 3.099263556186388 -2.2410437824261744 0.26421270841275674