20

C 2.629515981127874 1.2675142779689244 -0.3593195879288775
C 1.9465032801020672 -0.09415236209234125 -0.3615871169743252
C 2.792417837936643 -1.176964296783839 0.2550157417455789
C 2.5966102727239435 -2.612919650044875 -0.11537900960157
C 3.8329707776209268 -1.8841567093792115 -0.563860433994391
C 5.158139546040738 -2.2436543716916946 0.021968240422233856
N 5.750068580764965 -3.356458819294245 -0.7064568796072428
H 1.9993076393112181 2.0265356549975184 -0.8086397056343925
H 3.565653703423685 1.2293052101509563 -0.9248398540084899
H 2.8669183276981003 1.5852616644657982 0.6498243187313572
H 1.6915478726770694 -0.3861411410475751 -1.3871051934218923
H 0.996189414783931 -0.029673982939554044 0.1889000261893539
H 3.0677130310417993 -0.9999814661697466 1.2967092814230325
H 1.8338471269609855 -2.8459330424293263 -0.8535589714289832
H 2.703885127712845 -3.361343490097572 0.6647195585003289
H 3.861207273005877 -1.614690831764961 -1.616672033591351
H 5.018077871315472 -2.44895915936289 1.096934134000161
H 5.840571779130289 -1.3874400880817155 -0.048654331983057755
H 5.145061479098788 -4.167784421671881 -0.6657683995375322
H 6.643510065119143 -3.624106842582735 -0.30748031165542306