20

C 1.2691990454421287 -0.242161992132466 0.46360290127305886
C 2.5119771700016673 0.15815729439806828 -0.3117738002776688
C 3.2207874571230426 1.3457774559970686 0.2766918479912503
C 4.12726737030211 2.2084309266674853 -0.5486368172383355
C 2.868968560982886 2.7842722895967826 -0.009118825729635438
C 1.7481170803195316 3.1307909805998113 -0.941128959087155
N 3.00508010357195 3.7811042323260198 1.0297699617334226
H 0.7904223943727452 -1.1248035622469632 0.03139215532447276
H 0.5379962708363768 0.5642970607685973 0.4734718085622718
H 1.5178142540860016 -0.47821933282737106 1.511482627126126
H 2.2448627093646802 0.3602666930117667 -1.3524172997475117
H 3.2120419913343965 -0.6910155253915125 -0.3497131166184742
H 3.5600077785161655 1.1764405012311587 1.3011466940823433
H 4.1737351972092345 2.011012527262384 -1.623519988455045
H 5.07424781323693 2.5415652640817386 -0.12804585628124554
H 1.6406347013543774 2.4004571642938597 -1.737984172045013
H 1.9351290628276023 4.1075695258179294 -1.3990153826085412
H 0.7953104992190227 3.1916868658105297 -0.4137547473813912
H 3.846778796738269 3.6138381241571538 1.5760346124363087
H 2.230507431494876 3.7284043083891647 1.678135877236528