20

C 3.41580563510099 -0.15443200856654205 -1.236431540713362
C 2.427562150356574 0.15410678171547704 -0.12147649417552094
C 2.8405924495793493 -0.2155898743619969 1.2901547444030654
C 1.8050977900241039 0.22549939102220806 2.3081449832606866
C 3.546523142091277 -1.5229274594186337 1.5632075676537913
C 4.28283552625813 -0.20258878410070852 1.698444209467419
N 4.721788037402154 0.3745208862329144 2.9278260838370818
H 2.97971048476462 0.10884422917261255 -2.198099899741395
H 3.6828355667331656 -1.2124796806187856 -1.2751089192026235
H 4.336689337976493 0.4210520039757297 -1.1387433219323466
H 1.4806512394148226 -0.3489943592730074 -0.3308729526191152
H 2.2055399459484417 1.2304004989703516 -0.13316243854819254
H 0.8184645032093684 -0.1748917156431929 2.032301800391844
H 1.7212273375660063 1.3151523353539272 2.3426273569529585
H 2.015523157563946 -0.1393025334270878 3.311441501171339
H 3.7919470093329912 -2.1717105855814287 0.7409028731652234
H 3.279886680150244 -2.0301208197123324 2.484132812323309
H 4.982776105412893 -0.0007677119231029521 0.8934105849096339
H 5.4966120529049975 -0.1539917291867397 3.3111801575779607
H 3.9838823177600826 0.3635400897935958 3.6255180172650645