20

C 3.3376130973561207 -0.01835901666610832 1.2771641584855637
C 2.3777931272676263 0.18246625938524708 0.1159119641265895
C 2.975523946745885 0.9960956591485033 -0.9896247306575321
C 2.1394654726872804 1.7174028408973196 -2.0243579136921235
C 0.6375850018263722 1.6634292028065112 -2.060978732570323
C 2.885815711069201 2.507119378429489 -0.9893515537243731
N 3.949112537668616 3.3899302292459668 -1.3760374330891454
H 2.8876318161852406 -0.6153125646331565 2.0808604680093303
H 3.630024203668586 0.9399720721168262 1.7122982118712617
H 4.243856631984289 -0.5247707272629184 0.9537361095455719
H 1.461294352042839 0.666335160752232 0.48801415283522837
H 2.0664168943579866 -0.799451409076183 -0.2705853129396556
H 3.9189155100349256 0.6084613799538334 -1.3675224767768244
H 2.6051901178238133 1.7508273641419783 -3.0140147246456537
H 0.29711422525604386 0.75104661928899 -2.561044110137713
H 0.2121939964935013 1.6778938805732826 -1.0572828728301193
H 0.23444189017856124 2.5195982641326773 -2.6070950533347457
H 2.253351752795541 2.9173600273965152 -0.2004717064109215
H 4.3233117422563 3.1307582767869566 -2.2836725884524807
H 4.711486975136664 3.3458755807284613 -0.7119937300438054