20

C 3.3851648761382167 0.06424924438433548 -1.1691257583014623
C 2.526560149491868 -0.033794251512528586 0.08317623635174248
C 2.9586660516668744 -1.1256446831519187 1.044806840684366
C 2.1683009737587002 -1.16769131552956 2.3592135092926605
C 2.2480606605088607 -2.643627949423765 2.815064600511117
C 2.9140144549385334 -3.358168379972602 1.6113376464459217
N 2.8352366708815055 -2.4632659973293056 0.4700715105650287
H 3.0209831809294108 0.8430394140436458 -1.8313938953637676
H 3.3875918684151247 -0.8829507996579758 -1.717432809960992
H 4.421258117109223 0.28912134869071554 -0.9091901373180972
H 1.4722612315540602 -0.2122742490538452 -0.18642286820341505
H 2.5445705609013296 0.9233101309734607 0.6247770798608676
H 4.022023374260393 -0.985282567532919 1.276514593229692
H 1.127451757833236 -0.8858390098122934 2.1665500265057456
H 2.5527386826769174 -0.47796440264074747 3.1082286452451364
H 1.2550638980304982 -3.045842662583296 3.013879973710837
H 2.839073754410282 -2.754352016309155 3.7266809024255196
H 2.4597793188819193 -4.325201088415293 1.379595515181618
H 3.9746589774744243 -3.555196164515478 1.8310229402394378
H 1.9116910482426719 -2.547753743481489 0.04642614674856849