18

C 1.2479288012698475 -0.32313166284920447 0.318603453373084
C 2.3812903435506807 0.3417958694396077 0.17197629698487052
C 2.863085438043318 0.9556030509684513 -1.1036261901907334
C 3.156126746349479 2.4555512564395863 -0.9819909048521585
C 4.450385420713953 2.654842313780716 -1.7590481049419342
C 5.194136972269744 1.364701388475736 -1.4676266527409705
N 4.134653178119788 0.3718602036103955 -1.5608860431201044
H 0.9492839220451073 -0.7470772909803864 1.267459156770734
H 0.5695181688335651 -0.4634900485271656 -0.516252418601645
H 3.052966907246618 0.4670408394719577 1.029732546659767
H 2.099691259208582 0.781492603309815 -1.869939477703486
H 3.3188741708842646 2.7203305426224484 0.07333869464822523
H 2.328383894950415 3.0646593315513053 -1.3378396741202465
H 5.003434737473636 3.5515057557853984 -1.4560306557787719
H 4.251947398232157 2.734467236710123 -2.83422391501395
H 5.6594311250836355 1.4218332105728853 -0.4758621729741344
H 5.988396327963892 1.1612329247282553 -2.2003338474986136
H 4.354457568281518 -0.4956737781426194 -1.1011589554221806