14

C 2.6504952453660136 -1.3858360535297682 0.4203988501497
C 2.404570888805793 -0.1414635702173217 0.029339148680046695
C 2.9812038999738824 0.5793800345107716 -1.0704110948804806
C 2.743771307748978 1.8688456660720414 -1.497829813777247
C 3.563497914425012 2.11416553967724 -2.622941456941572
C 4.273222967112869 0.9683179703105651 -2.8626139975038702
N 3.922636298116017 0.04559268565018355 -1.9210050549414495
H 2.152050026831111 -1.8238994381423248 1.269673800563674
H 3.361052285202871 -2.0318452197190133 -0.09051841698224823
H 1.6782871301370486 0.4451451203777342 0.5967848847855347
H 2.0564604204545747 2.5497053205148004 -1.0340935001867861
H 3.6210044780905153 3.0259844114491474 -3.201055519861752
H 5.008040935973986 0.7324818221139353 -3.625849960977052
H 4.2880341148579015 -0.8849184830314947 -1.8576360928443352