20

C 3.3306045952755006 -0.4359577905641154 -1.2134807554067566
C 2.4568184623368046 0.07874485196351778 -0.08913297967086026
C 2.8639911629078716 -0.3319850351749424 1.3115708260179961
C 1.8903200651684657 0.1365661286679195 2.364874829619481
C 3.6238412728997975 -1.5923678996235358 1.5558860702296686
N 4.29695870012366 -0.31696139713632526 1.5671249167454495
C 4.817445561572086 0.16646216848240242 2.82639986265109
H 3.046187143872769 0.029862489833707928 -2.163832477802625
H 3.23449052121846 -1.5216712872771017 -1.3350879041543011
H 4.3818017956113495 -0.2160572048954362 -1.0189197269454757
H 1.4245609693870525 -0.22397657945622293 -0.24861708981710437
H 2.4525354105291037 1.1830889680353966 -0.1075075464375075
H 0.8956208940928898 -0.2501015298120768 2.1421881394518
H 1.822337638089219 1.2314453705550317 2.369529647972795
H 2.160572541185534 -0.18876206277349958 3.370371917630352
H 3.8802385394028973 -2.268113547775068 0.7458692031429155
H 3.452124557205553 -2.082229198907792 2.5139145503989266
H 5.854264920212943 -0.18764724831364527 2.9259041797644487
H 4.263803573300471 -0.17108770966262815 3.705982934398301
H 4.842576129899061 1.2634903419892112 2.817064166172518