18

C 2.3969636369821714 -0.7673110758292931 -0.7357898946540771
C 2.0658264115009417 0.270255336523749 0.0083380278338091
C 2.9895500247314466 1.3516902785692362 0.45265519391831066
C 2.5543683613212522 2.7596032511690805 0.03236279270201956
C 3.092407716706724 3.6406933375858577 1.1572965582870145
N 2.8764429038255126 2.867272831591506 2.3789352759498765
C 3.0933178756574433 1.4723245095700994 2.007698303185516
H 1.6699089317606957 -1.5230529054837187 -1.0189462959679023
H 3.4104421466031365 -0.9022134749189319 -1.1037767630419846
H 1.0334568347723283 0.36819425539492845 0.35247923715512824
H 3.982576340354634 1.1469137374568497 0.04364085984882408
H 1.4604232250467868 2.8228678651664487 0.0011578340048412283
H 2.931614817527546 3.0232407507964885 -0.9671009250715042
H 2.603894162044543 4.6103535253190255 1.2279171498471764
H 4.166936482063251 3.8064732475069327 1.0264015366177102
H 1.9130673458924086 2.984383402996177 2.667184662906246
H 2.376117603776654 0.8226530475659982 2.5213873095941692
H 4.092033861569562 1.1493843207568124 2.332482737737445