14

C 0.9583781698434581 -0.0011201991287797396 -0.03756065392176054
C 2.1522766461638185 -0.08331118527386375 -0.08074946669578419
C 3.5667681459328566 -0.11521325979000115 -0.13517131582899067
C 4.35555055672552 -1.1886675923731465 -0.19537784695276608
C 5.79273418970126 -0.7709979460306594 -0.16170212970370923
N 5.774831246209704 0.6763570361309229 -0.32348503999968503
C 4.419816276905053 1.1310718386321055 -0.04107461823390086
H -0.104795961417892 0.0628886338051216 -0.004790859009941574
H 4.013030922705512 -2.220749330344337 -0.2124171552038178
H 6.410105098479865 -1.2516143109022517 -0.9251009378606301
H 6.2475667028382125 -1.0562978889835046 0.804729418497907
H 6.001729044292677 0.8971434428483016 -1.2819868907910243
H 4.1100746125756435 1.9116854778031684 -0.7321109929135851
H 4.339218422826832 1.557002128492586 0.9700040977554834