16

C 1.9853912898937538 -0.7066112506486426 -1.3249705342951137
C 2.3466357884922555 -0.036052304761044436 -0.00701337678026912
C 2.930716230952153 1.3308549286537728 -0.1658705712135498
C 2.3526499451401786 2.51694388142955 0.20357328571154537
N 3.196420578717288 3.5328974940882283 -0.1333116053490447
C 4.312257637029722 3.0244691009524054 -0.7167254310218143
C 4.184705688539804 1.6618539351500983 -0.7491039681339274
H 1.5733403049105397 -1.7045004905757546 -1.1612873494767448
H 2.8671908652327476 -0.7985242407038345 -1.9651051808271043
H 1.2504186365633105 -0.11465990221202546 -1.8696681840529767
H 3.052264054985229 -0.6748306399630568 0.5416716161991703
H 1.4492346193623016 0.03788714032906585 0.6280731381991924
H 1.400604551819513 2.710803100672086 0.6891635274145362
H 3.0206399259735637 4.511047462914483 0.039224677880947
H 5.1141123220097375 3.6650649252683323 -1.052728884586994
H 4.910443028850394 0.9753697179812039 -1.1595156196874872