11

C 1.0289391245155193 0.04157593944504226 -0.06220621499522702
C 2.2252686740941074 0.009654764339105547 -0.06510055328736643
C 3.6427749021801334 -0.06908466086525028 -0.07081402631205104
N 4.4044569055994485 1.0327934002615067 -0.06827235001437597
N 5.647134111370593 0.572559176895239 -0.07261853341840128
C 5.728335828537698 -0.7771696347326563 -0.07164672028134936
C 4.440973436899997 -1.2330005231414534 -0.06572475888314772
H -0.03862407397011537 0.07452087864679283 -0.06275596042074194
H 6.4099525348954165 1.22738795579279 -0.07936190208918423
H 6.676497116671876 -1.2966248715756052 -0.06534182030140118
H 4.09664526210801 -2.255349566616924 -0.06298628762481899