15

C 3.54262196156188 -0.20177411236155773 -0.944192035339497
C 2.426338986706766 0.20509440042753532 0.011220347510808405
C 2.884607250134389 1.1517339790786334 1.0743891985700598
N 2.501768540639532 2.4226400861727146 1.0613269038722566
N 3.0977468299260913 2.9649071682942685 2.1244882079247085
C 3.8637820368584928 2.098711822271046 2.813167445713182
C 3.753392273179799 0.8953962354009479 2.1579487944951974
H 3.173757097934991 -0.8935835037650095 -1.706672948527718
H 4.363248085505221 -0.6975209937792458 -0.41074673797915096
H 3.9600473298798753 0.6652369480143006 -1.4539889447093397
H 2.003357994213695 -0.6796835273932673 0.47540306208878813
H 1.6217234554020947 0.698494912785063 -0.5416849180741866
H 2.945567864061597 3.9394574344353317 2.327070200020031
H 4.403386484712979 2.3889030115570105 3.699625222225621
H 4.222269929258135 -0.03757758614373393 2.433948948557962