15

C 1.8083722663731456 -1.0712813519645847 -1.0330632467989584
C 1.767809170489782 0.15345476952552184 -0.5087098943362319
C 2.808245900851118 1.1635921494407682 -0.7006710965697811
C 2.51783814114703 2.607549728168273 -0.8102214210042714
N 3.057399371287514 2.069622810960054 0.4418330867434136
N 4.440039115306361 2.357947540844963 0.5348850803247429
C 4.837549192379537 2.388978005230819 1.7323577865680762
H 1.012969723013234 -1.7819948855560073 -0.8843796985473389
H 2.656227134504027 -1.3959705815699517 -1.6376088510201667
H 0.9178804303006277 0.4484750392849238 0.09156875043051689
H 3.7080648926671147 0.835359419077592 -1.2202127513490888
H 1.4965207683720088 2.9576532411129284 -0.7382455535474532
H 3.194024356068827 3.200091602505701 -1.405149153563064
H 5.89274054337974 2.591358814331425 1.906489340236858
H 4.167808443789672 2.2169773687064724 2.57800541234762