20

C 1.3575156361634269 0.3592961453173269 -0.06005690539132688
C 2.3743153879013836 0.14296816649846011 -1.1675505558398391
C 3.2849155990599126 -1.0408909871417875 -0.9497903543457106
C 4.2411487379021064 -0.8992151751281358 0.20267977129248987
N 3.7949451491267414 -1.657106901872953 -2.1687456307489086
C 2.8709843785612557 -2.412015539647721 -1.3191068415286933
C 1.544031041287226 -2.797256277161108 -1.903688204311877
H 0.6995388204575527 1.2092437795392839 -0.2963811036567079
H 1.8346909535104239 0.5641954674696367 0.8953823292982632
H 0.7210899337042472 -0.5165058770813635 0.06262374011785429
H 2.992710806803664 1.0349960157523035 -1.2901355821176372
H 1.8613489366573943 0.005870771954133246 -2.1347859416164643
H 3.71962535986335 -0.7403825277518425 1.1553724935664622
H 4.90457165109276 -0.03345621800811588 0.05149142587517396
H 4.868788204169576 -1.7842886564412486 0.3159462389614212
H 4.745045348924628 -1.978001603172979 -2.0320469589250796
H 3.317045904145365 -3.200323823682186 -0.7024518150685944
H 1.12408488859094 -1.9822276645919918 -2.5067758174186867
H 0.8305845519055408 -3.0503043479057097 -1.1205772853442548
H 1.652134210877789 -3.6668289056159487 -2.55942925216684