20

C 0.6350491338505709 0.23138285035944414 0.3749533248211524
C 2.057411465330621 0.11870961391315867 -0.15873015316263592
C 2.828586669424494 -1.055840596757993 0.39497291650462246
C 3.0662740165056386 -1.0644678731527495 1.892571320594735
N 3.794815592351451 0.1299219343636094 2.3050131306896957
C 2.6259082741019935 -2.3934632376704115 -0.24993466434065123
C 3.9123115769913914 -1.6427636200796498 -0.4512025593187572
H 0.10083860064271473 1.0593651387093848 -0.11040756017043526
H 0.6247127232546206 0.4194592012260268 1.4434353618144482
H 0.06841802496656228 -0.6880184925378794 0.18333060965570683
H 2.6082119248799964 1.0416408099941756 0.08677993890236885
H 2.0368048408074495 0.040078076806715615 -1.2432655342258858
H 3.567980043911229 -2.009514768820982 2.1475023907468307
H 2.1053355876431774 -1.0635695626868935 2.4164037329047563
H 4.711069222774845 0.144166284938802 1.8746971463080428
H 3.9271479923503017 0.13690634094203324 3.3053839651028523
H 1.9381462974792403 -2.4409928238583443 -1.0908613526064725
H 2.6486719826208738 -3.2838603380649682 0.3693207737153381
H 4.099460780735743 -1.1985596516675634 -1.4223583510544175
H 4.801038267218577 -2.038568448562861 0.03594521610451023