20

C 1.0442633413585807 0.11448455548543787 0.4133385291981822
C 2.504615345193819 -0.25382044642295043 0.20806303324004627
C 2.8045348161272785 -0.7393735854524124 -1.1995869110717143
C 4.223631922046875 -1.2987827344757539 -1.3945441312307083
N 3.7011852499565 -2.651991570432369 -1.2036209727898102
C 4.243111975091359 -3.7241593928761776 -1.979562401900649
C 2.342673461531938 -2.180244516318602 -1.4979428934699515
H 0.8612131810419176 0.44707580007545916 1.4310183551345854
H 0.38460625631896733 -0.734371522631485 0.20765874145334787
H 0.7516667534671357 0.9257656241290426 -0.2609932515500455
H 2.8018489398410886 -1.0360345167999927 0.9194661804875324
H 3.1425585134661715 0.6123540718469448 0.42269754296623524
H 2.4985209496603615 0.006705835892796652 -1.9340356994985661
H 5.002402450689084 -0.9951406336101094 -0.6867725931881782
H 4.598186742894018 -1.129032815601216 -2.4221368025745353
H 5.280342904758994 -3.8995455584927323 -1.6986612899977078
H 4.2065294908072115 -3.523043960001566 -3.0722888664483476
H 3.6899518793248 -4.642193998852069 -1.789938009870175
H 1.5527162565099006 -2.608313150793352 -0.879597061871584
H 2.068341666834191 -2.3060423072106153 -2.55841090669092