13

C 0.8962869379533406 0.015490285438681585 0.10472758816505272
C 2.099939527186929 0.022663318497784215 0.08056686590785991
C 3.5493644233858106 0.04199038745931147 0.04805494267627754
C 4.182483650087299 -1.1425458245059232 -0.75167882659484
N 4.587923657143251 -0.5857254095707596 -2.0401802016370008
C 4.4865894499572905 0.6727606513673671 -1.933440454320587
N 4.08302291353012 1.1773987228363976 -0.706005115264698
H -0.1646754960174575 0.0032681753100483853 0.117223492855372
H 3.924209428910014 0.06327977173979697 1.0749894134800178
H 3.4720326991092785 -1.9584174348444159 -0.8846223429833633
H 5.057106379841477 -1.5239553848454819 -0.2323425996955411
H 4.753016055685562 1.3681454681281242 -2.72812200430715
H 3.5491533124710486 2.039284087454275 -0.6979278811287225