15

C 1.0996027338555536 -0.09122567004581054 -0.03916210268329637
C 2.5943303049666757 0.0443849860579618 -0.09662326192739566
C 3.242389554667299 0.20923640933270274 -1.2508478509631058
C 2.6983339518662537 0.304290329762562 -2.6598254750862385
N 3.84552601810788 0.49724906522656365 -3.5407043977811297
C 4.861120534103988 0.5049170433662045 -2.7791709204527133
N 4.6129404803688185 0.35074826534370107 -1.435166129801738
H 0.7594149861564296 -0.22324473799692565 0.9843869671389207
H 0.7378309930688001 -0.9522685551620027 -0.6150951280004745
H 0.5956496818917306 0.7955778081930914 -0.4338585611882143
H 3.157299799655704 -0.008424133681948796 0.8270923982999697
H 1.9894315633338429 1.140025880871481 -2.7592775527486015
H 2.1435117308588096 -0.5969424070358054 -2.9444649051804466
H 5.883444427723428 0.6274069664348311 -3.1327039509324717
H 5.313681160111125 0.33068471917467096 -0.709780137989855