15

C 3.5184072142437564 -0.5522455887923587 -0.9893632920622882
C 2.404016881954162 0.0743048278662394 -0.1519459890262593
C 2.801637978800736 1.331988829506829 0.5388407603511164
C 2.402696192744359 2.6313748710286258 0.3962972680253228
N 3.0767262043321266 3.46039953094177 1.2612773469537402
C 3.875532429824112 2.681526334582285 1.9281551945149304
N 3.7606716931633146 1.3847586941914518 1.5333229434233744
H 3.1658945247302466 -1.4537321586499985 -1.4818843164243882
H 4.37751208229501 -0.8305737026740151 -0.3719287819026413
H 3.869926169236381 0.14228709739583936 -1.7445570602202027
H 2.0401090626375304 -0.6543434918912093 0.5819180805800579
H 1.5542663080064274 0.314363912212121 -0.7910010540396901
H 1.6578653804339214 3.01508111493781 -0.2807678616262051
H 4.564809665112059 2.9865398727564245 2.6952356346934017
H 4.271536173499866 0.603854247325868 1.8985385424511463