11

C 0.9509090844176312 -0.077343919035542 0.0644500127227531
C 2.154275517092426 -0.07299999666705637 0.0706935768745853
C 3.5688996904543644 -0.055011109662283265 0.07153156931179441
C 4.382935450933609 1.0551078590620873 0.07909519355951145
N 5.655897488132875 0.5690076419217287 0.07541095591316758
C 5.574614835608622 -0.7795994749672508 0.07767481761080731
N 4.335908416251246 -1.1999371434631196 0.08261870363348396
H -0.1101683732097549 -0.09386482248672215 0.0602244403853701
H 4.148607327767173 2.1063509727929204 0.07320100811042524
H 6.494977731828867 1.1216621476466273 0.08452894732758386
H 6.451740434309713 -1.418715500107797 0.08825653948536419