15

C 1.039359124962091 0.5759094028974701 -0.2047205829950339
C 2.2889731672633986 0.16543042420251816 -0.058595817656607145
C 2.889761551777704 -0.3719736240991761 1.2041016176327173
C 3.0043386375118137 -1.8979255766359484 1.259310363018507
N 2.931036752685165 -2.1460455820141506 2.7069603924125953
N 2.161807620153518 -1.1514268471486293 3.2736355201063394
C 2.1200487291639787 -0.15676731691151513 2.48565297443407
H 0.6768853842465239 0.9457286170351817 -1.1573682516426604
H 0.33337874571939696 0.5609212031688979 0.6117865869445155
H 2.962176816529845 0.19324401523543253 -0.9155396696944801
H 3.883621811675229 0.06988570326689031 1.3348507769646016
H 3.946733459826417 -2.279679404331264 0.8497909734577755
H 2.167119367965189 -2.3585740045985237 0.7248446465115085
H 2.5890297732835763 -3.047351988769593 2.9784268039711894
H 1.639961407725547 0.7712735813813719 2.785952159555136