13

C 1.0607115967504865 -0.0017342878654559163 -0.46812865417503485
C 2.232865086928756 0.001763533166439494 -0.2215037302535074
C 3.6511387434733176 0.02125859629671032 0.07734251692008978
C 4.197056228184976 -1.2682280425954617 0.7170371628807478
N 5.311424332717441 -0.7373865741726936 1.5084116179144236
N 4.996147210848442 0.5473643950745058 1.8988517843493165
C 4.088870078323409 1.013331849010568 1.1392254672764552
H 0.015428983144103662 -0.009414291065425122 -0.6781312454575641
H 4.20986689631196 0.23449337095176323 -0.8475162972893323
H 4.541469673046072 -1.9989215270124308 -0.006674832454437472
H 3.421816804388741 -1.7154236947628534 1.3574025808438928
H 5.586290079016774 -1.2823045156508084 2.306903108439456
H 3.745334261985804 2.0324477958124176 1.2228466284632769