15

C 2.807333654463564 -1.4439248737664745 0.10952645828006413
C 2.3237470684840424 -0.009045232753115997 -0.04015877087429692
C 2.893070670494139 0.9341646895638795 1.022602671104613
C 2.423556285334295 2.3524543757720453 0.940659887910154
N 3.385028286542203 3.186380425511068 0.8442927154620807
N 4.610251435138069 2.4708053552571627 0.8480042328348872
C 4.350797480479604 1.2234207149720555 0.9525771727629581
H 2.349293372766966 -2.0779556781654582 -0.6550504439318134
H 2.526538887360701 -1.841908937277556 1.089859559242125
H 3.8916513153459458 -1.5231591925464554 -8.814310559044324e-05
H 1.236501354166462 0.030012160951680297 0.012054149032985337
H 2.5892954781695874 0.3750638551151458 -1.0377071527172297
H 2.65347068623286 0.5329652848223199 2.0180133717319206
H 1.3938398301911805 2.6757272397667755 0.9536462865051201
H 5.148956495813296 0.4971299692593488 0.976703882690009