13

C 2.690345222850264 -1.214741715021809 0.23741641497023788
C 2.403138827834795 0.05996670368497724 0.0036542752175225492
C 3.080515160428125 0.9386915984311128 -0.9303749086480799
C 2.7774346995005206 2.26543872490476 -1.1821225047389397
N 3.664412772516811 2.6877982394203666 -2.107679374905865
N 4.528131958571915 1.746147929210367 -2.4819827274123827
C 4.1807325340227495 0.6855991486274085 -1.7820880387452032
H 2.124452167449693 -1.790108163178898 0.9529717634753366
H 3.5022382081551 -1.7262956912006884 -0.2588575252130597
H 1.5714474224402464 0.5079517692026656 0.544432579163489
H 2.016652714063166 2.901772234731406 -0.7764180923905672
H 3.7242133805203506 3.6052025407355752 -2.5174745571992134
H 4.742613481827849 -0.23496670536303635 -1.9090615380636224