15

C 1.1539703011473612 0.49328353313878726 -0.5306575545378229
C 2.564009782616081 0.06217056129150525 -0.14658810116094195
C 3.0137498224871693 -1.1745343008994404 -0.8585284059498393
C 3.8951775183329733 -1.2718145064518287 -1.9171878091739607
N 3.9682880533248337 -2.5809842758817547 -2.241160458698265
N 3.206560927195925 -3.353292279146059 -1.4713822848395812
C 2.626673582367437 -2.503368197673389 -0.6316509422050421
H 0.859443468762192 1.396224869742799 0.02202957947695999
H 0.4283478911227212 -0.293144160732352 -0.3089954603991041
H 1.0852200069354918 0.709433877574494 -1.5953708671505922
H 2.604682490636272 -0.11085566452643957 0.9333127393593039
H 3.267408376403642 0.8701907499883096 -0.35099477084212477
H 4.453187967432745 -0.5176751100453835 -2.441809926106533
H 4.520331568531231 -3.006117411138934 -2.957267561741937
H 1.9377930035585578 -2.8904103298590864 0.11516548636310572