14

C 2.0451491531082167 -0.2290801617355334 1.108559814867397
C 2.4292088894659094 0.15694137433989042 -0.10083403927871948
C 3.3025368339238397 -0.6100825648436454 -1.0126950908981747
N 3.657127336585859 -1.9847165014028674 -0.7776680151584769
C 2.7100032662775426 -1.6922958974759823 -1.8610665459825457
C 3.143735668256888 -1.9166179924295965 -3.2136765101114984
C 3.4791910872595215 -2.081463047802804 -4.354285296746941
H 1.3989813596176581 0.38866546834451626 1.714517789310808
H 2.37814098248547 -1.1649591052406014 1.5571351502940947
H 2.1034043776964957 1.1210834409469272 -0.476166320094102
H 4.0903338231226165 -0.031585539191570935 -1.4843041537537993
H 3.1494314022985805 -2.3570416075496317 0.010325046707744562
H 1.6658760564465642 -1.9066734977439275 -1.6701553731714631
H 3.776491059771957 -2.2342881332068205 -5.363425822258828