18

C 2.430674226277172 1.3359452705915005 -0.057018708545948475
C 2.4730342489958437 -0.1816919743797605 -0.15840607917660063
C 2.9855505521842556 -0.8347280292394396 1.0865278598695103
N 3.4571097640901582 -2.2054942645244173 1.0802501455691518
C 4.4338960156915865 -1.1270309061908115 1.2357460039604928
C 5.120843134313838 -1.0514110599986883 2.53109918228329
C 6.361482433976891 -0.5950113659000448 2.7070677303897193
H 2.032567208118085 1.7921829712660562 -0.9722084665066943
H 3.4182869371425646 1.7532419284063778 0.13275448427496123
H 1.787330481779015 1.6529359393321144 0.7731580054108363
H 3.1077146016202692 -0.47726062817933357 -0.9985910986740698
H 1.4625829504126668 -0.5620969221997308 -0.3672751388377766
H 2.4452446549008355 -0.5716835075111736 2.003009804989913
H 3.4845235306179143 -2.562826468637416 0.1305726080234442
H 5.050621079137784 -0.8762428503965897 0.37652122714723296
H 4.547863274620127 -1.4002427755209854 3.3920034567296464
H 6.951068870664585 -0.2486457871007057 1.8638575305190883
H 6.813764276046492 -0.5402214882487782 3.685358596216222