16

C 2.8319811839562163 1.3014156005228998 0.20044648924705122
C 2.4522726799045302 -0.14725383532242825 -0.06988007541510129
C 3.026946561918866 -1.1022906956316088 0.9294972658311117
N 3.1076680636406984 -2.523345256869202 0.6589105504021907
C 4.351412791946044 -1.734741254607836 0.685884428679832
C 5.284039886078767 -1.9977211755600905 1.7325616800220123
C 6.0900935710104305 -2.201061982459286 2.6041271358859364
H 2.3840909322345762 1.9766492537747111 -0.5381270078425008
H 3.9113706085806195 1.4359159144160973 0.16864394272189331
H 2.4861854472076135 1.620217823698081 1.194015572743842
H 2.7780421922420446 -0.43599518604138204 -1.0769156545913365
H 1.354915393142762 -0.25306340812412165 -0.06354241071774724
H 2.7928424368358913 -0.8832095776152139 1.9743069757200942
H 2.847353657625314 -2.7039419619382206 -0.30855509348507426
H 4.805865298805132 -1.5017366882101912 -0.27924366549422014
H 6.789320374437574 -2.3849194745105153 3.390491479820554