19

C 1.259222555572918 -0.24751562372361763 0.009676640037486316
C 2.7074383791810637 0.19984162695062999 -0.16214196542362538
C 3.156078287044819 1.128057179722658 0.9243458974765336
N 4.363265257683721 1.9413855175420451 0.7484816766286392
C 3.0464431174787454 2.5912217011687977 0.7665422585271336
C 2.8002195159233465 3.512417561066787 1.9176979558082583
N 3.4813923790890575 4.775224830587211 1.6754538528124774
H 0.9536529091819542 -0.9313832320412144 -0.7801161027926721
H 0.5760299811717216 0.6180496753034666 -0.005749100380293788
H 1.1154114096503542 -0.7598081335721163 0.9634020055451794
H 2.8314370729768155 0.690689811502703 -1.1304231591983434
H 3.3544894560803873 -0.6801312909729439 -0.1773266716765824
H 3.064098577311937 0.7300348687286605 1.9322835574877142
H 4.695798003172398 1.849723335373784 -0.20225786662869158
H 2.657085447400002 2.9503486878894534 -0.19031214957287623
H 3.1229136393643926 3.0066029568994135 2.841247207922748
H 1.7262826748796403 3.7077620307853714 2.0001374697502636
H 4.4771419297431105 4.601320596453598 1.6159581456992087
H 3.3356789650764758 5.4217386482215595 2.446824387965328