13

C 1.351504580366453 -0.3584294368203828 -0.5800236570555807
C 2.206883264377168 0.2942737408622691 0.19717544182507274
C 3.025217036485744 -0.299631081682527 1.2625415905084605
N 3.210213435136886 -1.7282310977595075 1.4123724588272801
C 4.334030385523484 -0.9476069630699142 0.913647068376957
C 5.476747351121221 -0.8263482272681534 1.7788808062165453
N 6.404597709358746 -0.6974546979497785 2.4433481075887165
H 0.7853788963973918 0.1500480283627802 -1.3476914721107158
H 1.1721694348484666 -1.4243081340829271 -0.4727772169586008
H 2.3261680411928016 1.3692396901754185 0.07491814204869957
H 3.005406759087447 0.22682359140458874 2.2210845653722755
H 2.781401210046243 -2.2341797196784023 0.6376033612692806
H 4.570447789870291 -0.9955380133559893 -0.1427286231835496