11

C 0.9858544105826983 0.07618787439234206 -0.01991478450810961
C 2.193466996595017 0.09753103535842646 0.034958078709352636
C 3.620856246927068 0.0929777897521894 0.09619470411603404
N 4.401402097025375 -0.6212663073200065 -0.9110836447851524
C 4.3820362688703876 0.826966846692379 -0.9610301007411388
C 5.6063332467964235 1.5039571943033778 -0.6156708865846476
N 6.569916501165703 2.081777048990913 -0.3461949571977757
H -0.07581257362277562 0.058758314776069874 -0.06450367351678185
H 4.051184516881651 0.053025892410055835 1.0942406055808687
H 3.789008969013853 -0.9999848174218359 -1.628344957799376
H 3.8012355766397206 1.3258941266447137 -1.7218842714830127