20

C 2.168354809526197 -1.2845342819653012 0.457165740060884
C 2.461075028873032 0.09936190422909134 -0.07070420794890374
C 3.132987513850353 1.0007220289070686 0.9628888233111206
N 3.4092830351030337 2.380429152801698 0.5232822910093211
C 2.255591779648441 2.886715250842095 1.280776164073276
C 2.1943398477375267 1.55348758798477 2.060718631220858
C 2.7880136254292505 1.6107526126566651 3.448914363805006
H 1.6905716168179965 -1.9122621234966761 -0.30130554903244977
H 1.4990322224995256 -1.2523787832715096 1.3236273734359607
H 3.0870652686458393 -1.7896861935295756 0.7767897956644906
H 1.544207548705594 0.5775885450094977 -0.41790324268778356
H 3.1254969379776862 0.033280073533903845 -0.9428170448500428
H 4.030012041083179 0.48770413928621803 1.3524001343841654
H 3.381539360921663 2.521942693743112 -0.47979725994529443
H 1.357394370959988 3.070281463060098 0.6766494032516146
H 2.4652447461524876 3.78624695459947 1.8709006659681688
H 1.2048590642555146 1.091588373971642 2.077445892308232
H 3.7694636509728188 2.08043618163435 3.4263255856453334
H 2.901111583211406 0.6099819992207229 3.8654840026383503
H 2.150258553392626 2.1804450587670736 4.1324901330131825