20

C 1.2104410003149126 0.6852887067285045 1.1236354754675797
C 2.3111171491019005 0.14771974295038315 0.22608807958273225
C 2.9907363074854008 1.1139380950767992 -0.7266852584375694
N 4.040014427924317 0.5357106568701797 -1.5257093211977577
C 2.1966124608855964 2.1760861103511147 -1.4299277833879933
C 3.1734872986758758 2.557578530312791 -0.3525564150309519
C 4.429100499865365 3.3215001155763266 -0.6905805846810084
H 0.7852752006965162 -0.11761577094815688 1.7269953151166089
H 0.39748668012554195 1.1360927426658696 0.555277524390407
H 1.5861441032881698 1.441548096979857 1.8218387278305852
H 1.9059445328768025 -0.6753437279514386 -0.3791361281341361
H 3.0964512169529588 -0.30024114836571825 0.8549590200701223
H 3.6575532303828506 -0.1788954909049991 -2.1349604727677427
H 4.7318547796669 0.10065031598702909 -0.9425356382480937
H 1.1388291878577745 2.271086437835105 -1.2203681162933815
H 2.4825848035940057 2.386929788486503 -2.4489888280891146
H 2.71869502121812 2.843977992554802 0.5907493771305299
H 4.853192142465291 2.959954580418088 -1.6155791963142412
H 5.180995051820006 3.217530653676791 0.09742026656423228
H 4.211523679570492 4.39303965638845 -0.8007958979732679