19

C 1.1170399765903847 0.44730706622348515 -0.2940760864365881
C 2.5152875336114815 -0.00456772467670261 0.077818296630906
C 2.9930112233653468 -1.1827838767547305 -0.7442807086191355
N 4.332853477844438 -1.7123132155906597 -0.42725748505789823
C 3.8053951008171483 -3.0995902500977954 -0.48240292353129877
C 2.358900180010669 -2.5818339816180074 -0.5036480936195101
N 1.4535285011690076 -3.2145900423309226 -1.429953245990195
H 0.7969383222198172 1.2981444054788671 0.3156458160499586
H 0.3810212057944125 -0.3537624235562871 -0.13636189316471714
H 1.0532843220715256 0.7507277732760843 -1.3358198990790406
H 2.559548252269664 -0.27678407400063393 1.1383533583790693
H 3.2216878826604605 0.8222890216896146 -0.055313713042163495
H 2.9495499501079356 -0.919555149508033 -1.811444796722815
H 4.588707979408734 -1.4665868893457878 0.519727764920905
H 4.087786238552818 -3.75239168984235 0.3404401553233885
H 4.078805131308517 -3.5872420149744144 -1.421724607177512
H 1.9154587436402932 -2.6116291914801555 0.49858722280818524
H 1.7815866788112098 -3.126035098653439 -2.3740246007094674
H 0.5230633976428949 -2.7938723059133794 -1.3867267892959656