15

C 1.122978679183022 0.0296512516558411 0.47273201881035354
C 2.235899943431974 0.06792246040255585 -0.25506399965262466
C 3.0134147072028936 1.2654448568328063 -0.5222652967320064
N 4.1687126227053035 1.2113689186567096 -1.0651126788510912
C 4.665455138559519 2.5806571716691855 -1.1198559527825949
C 3.446577384030527 3.4724934161701384 -0.8463581173227441
N 2.571044451095351 2.529866429769884 -0.1607728943863078
H 0.5906320632673117 -0.8986725002314959 0.6431196008465742
H 0.7064845326173455 0.9240854438995838 0.9396769209742784
H 2.6501382858768836 -0.8377272457798681 -0.6886630580161921
H 5.141211294321004 2.791217133622316 -2.083918551761467
H 5.433407794589173 2.7098518218908048 -0.34412091550268276
H 2.9915562203733916 3.8347730666226654 -1.7755772622389592
H 3.6724989783287976 4.334968491440483 -0.21581590264371775
H 1.569310309231614 2.695686758624802 -0.2228188858586716