13

C 2.687665810548869 -1.296690765877787 0.4315413327576598
C 2.3493649311138842 -0.12600255865707352 -0.09470280787562578
C 2.950373016598946 0.5258605975570099 -1.2373030258524649
N 2.573012513836435 1.6911176966485322 -1.710640295085299
C 3.3782348272006986 1.9511469980248928 -2.775588532352305
C 4.257856568737813 0.9260645187036886 -2.9603764884384547
N 3.9833184095846113 0.02655911590537107 -1.9742253174117974
H 2.1641666828507957 -1.690380194909169 1.286871477192245
H 3.487652230953056 -1.913370099311082 0.024172027612317074
H 1.5334306255208092 0.45865239261576174 0.3426384958756396
H 3.283161854034599 2.851172099098065 -3.3562354302045847
H 5.048193294690004 0.7572130960687092 -3.681178353843903
H 4.443915853324241 -0.846565701740517 -1.8193844971144628