11

C 1.0103357974934597 -0.06869506186057649 -0.07880221983882202
C 2.207870360091201 -0.02485401644252755 -0.0817193771139265
C 3.6160806766696263 0.0013456337218726272 -0.0823984200735753
N 4.389567081088237 1.0649883735958419 -0.08571850461688606
C 5.668485959596264 0.5882123204617833 -0.08325249711521061
C 5.67261766128567 -0.7732332395129436 -0.08181752301026939
N 4.3628509688875345 -1.1439472253552736 -0.08242833699765686
H -0.054420269588662695 -0.09562076717351319 -0.06642631173675968
H 6.521263781232938 1.2609896309403383 -0.08777674506594156
H 6.473486661667416 -1.5049424655338017 -0.0839568451776992
H 3.991699818489924 -2.0806949039438467 -0.07812512731919961