11

C 0.9325806464976775 0.023665752002852734 0.05826869206529984
C 2.137812515865236 0.004114429214223007 0.05417855568984743
C 3.5504221993749105 -0.06772682737494827 0.05862988305102618
N 4.314311657414826 0.9651851174571024 0.0676681953280037
N 5.660888638856326 0.5409686114112953 0.0655528230909461
C 5.689494479887438 -0.7440938634422551 0.05671724646628195
C 4.333681486138668 -1.332454124297077 0.052756702566239835
H -0.12927981200381505 0.05617223391657062 0.05597349556719944
H 6.627291927924703 -1.2786226503561937 0.055323296949487025
H 4.134907573055386 -1.9614773883321526 0.9328928315587375
H 4.139085435640897 -1.956066553363598 -0.8321887516510429