15

C 1.1641737637366003 -0.6152120779642397 -0.15322457038384568
C 2.4796211765175373 0.11231080533479396 0.1219661709219705
C 3.0011709018560375 0.8498750024034969 -1.060182228186431
N 3.172617644040814 2.1268183035000034 -1.053826955052042
N 3.675727952146424 2.5402765082531276 -2.3175813776425387
C 3.8110703907767745 1.5038432189982285 -3.0613232123790226
C 3.39970384685384 0.25786903937161115 -2.369396668029366
H 0.8159595924081487 -1.1235757435740772 0.742673134326168
H 1.2831258437083406 -1.3643523984816783 -0.9340467416105701
H 0.3960909181508517 0.09360468401292406 -0.47620662051288537
H 3.238765071220691 -0.6136300544979527 0.44483917970890896
H 2.3593459536858785 0.8398086043828238 0.9253866149023313
H 4.193888245653033 1.5838409329067507 -4.075358618600814
H 4.205547024465485 -0.47693735133817394 -2.2844185298257678
H 2.5713795955636787 -0.24808575374224837 -2.8749378134595402