20

C 3.034844116113601 -1.6056378107199003 1.2075076086413425
C 2.8897060930908416 -0.5356101155418286 0.1349327292645755
C 3.4594725587336947 0.8231052046176133 0.5257259893119974
C 4.9479304875136645 0.8042565379894978 0.7772285553462941
C 5.61262347615777 1.975629444788372 1.4564140201108808
C 5.505704323638916 0.6666516291704235 2.170590314424601
N 6.7098488500801645 -0.05527333508262729 2.487939734377353
H 2.58110265886222 -2.5455680183925 0.904411272492018
H 2.5574366663019643 -1.2986936559600146 2.1413528732616283
H 4.086317341841367 -1.797562247852493 1.42835152393722
H 1.8205334586874553 -0.4099459916596648 -0.10415262625910975
H 3.366588688545857 -0.884770228533579 -0.784921853874936
H 2.9531380195771835 1.1936605134533202 1.4206853970292974
H 3.239506697703774 1.5391313182110755 -0.27315086617738216
H 5.546681721871695 0.3341752727861236 0.0013348773010402834
H 4.9795959770725045 2.791941204417993 1.790483001622022
H 6.583155069073199 2.281673096133982 1.109431681192912
H 4.776490244682117 0.6200965926494285 2.967868048383611
H 7.449162187721943 0.18825544336139233 1.8484018314964474
H 6.557725369334842 -1.0505138947733155 2.4170116842950247