16

C 4.556244185818693 -1.7024260616533287 -1.4870068793646996
C 4.089335558517043 -0.9085709343786708 -0.7139222268035054
C 3.546587954086239 0.031653096506674736 0.25691556123613835
C 4.383964960275732 0.0975834412279007 1.5318500029101314
C 3.6355659395806375 0.7731844129240898 2.705219928489597
C 3.3712617677293237 -0.6535000220870635 3.2163994910513756
N 4.428975468179183 -1.1395104319603315 2.326678937155783
H 4.967293904822218 -2.3940344063047334 -2.178170201199901
H 2.5172799866143607 -0.26402462674976934 0.5086660519943668
H 3.4878923640927186 1.0260691239323807 -0.19447647557288653
H 5.371787067894291 0.494847084843882 1.285888670659276
H 2.772661380700011 1.39194623250964 2.449765008322928
H 4.306244020095563 1.3353004938612243 3.353552244903683
H 2.3587949854260213 -1.0113912950931663 2.962281961109129
H 3.545988881079448 -0.8426132999591726 4.277721281668259
H 4.255265915370278 -1.9897847836775795 1.815578803632386