20

C 1.2720522007244954 -0.7350122085748004 0.6246799960339331
C 2.528491932505215 -0.47838407495941077 -0.176228576144242
C 2.156881149614541 -0.06593669515767862 -1.6028228292210709
C 3.455480201880444 0.5653825828495963 0.4448273122493824
C 4.842228292412308 0.6177809739498199 -0.14400825166407513
C 3.3048584705493624 0.994036382159306 1.8501269198030557
N 2.8117892836519536 1.8424206230242888 0.7675583486250693
H 0.6044488956154402 -1.4124940587086607 0.09508958961667287
H 0.7260379832809631 0.19455893822347275 0.7973993777150209
H 1.4878977179228412 -1.182869827333885 1.6035918862623457
H 3.0999519363701404 -1.4134564621768524 -0.2271823100398513
H 1.6156264240065619 0.8748476004448732 -1.5915272447088769
H 1.5156744452677184 -0.8221238070977784 -2.072625943002672
H 3.0377002534996653 0.05371867969625628 -2.241098807749894
H 4.82901405973728 0.8738254090126122 -1.2030707104874026
H 5.338579401796581 -0.349318421754215 -0.03684240817192714
H 5.456999033206009 1.361837306164336 0.3795997805624831
H 4.21387455984403 1.300428812760267 2.368569623633834
H 2.5390385451898982 0.5822434754836459 2.4864418500343377
H 3.4520225734437346 2.613312921961128 0.5908763138261183