20

C 1.0619999215352285 -0.0678689615956427 -0.03630920561197958
C 2.5156618299836544 0.3732226614849983 -0.03456866882174549
C 3.475278157574626 -0.8062630179665916 0.01370391851393989
C 4.9400070383001085 -0.42382672069965116 0.09093986919902189
C 5.481713609149917 0.3685995343132942 -1.0754336214147469
C 5.545785602808048 -0.2422525039185544 1.4224385646626898
N 5.86961384902223 -1.4224909878653211 0.6104132298598542
H 0.3825398600087799 0.7902327916143652 -0.07778760872134655
H 0.814434022389404 -0.643883595783761 0.8588108423410294
H 0.8389311108642593 -0.7085755605881902 -0.9046173343999391
H 2.699151335321699 1.030782773620383 0.8228209055630304
H 2.709510057199804 0.9681849326163267 -0.9283913620334586
H 3.3196484410059126 -1.441165185351535 -0.8615772611653804
H 3.237965184078912 -1.4249153623171804 0.8966718988469878
H 5.0100997975795245 1.3489759394198872 -1.1406189247023975
H 5.296701909581725 -0.16332420063982897 -2.0160876049243956
H 6.556954508545611 0.5014080870517608 -0.9688380477988627
H 4.906352947154082 -0.37403035473078405 2.289925255269695
H 6.359198867618463 0.46215048044743634 1.5629091402549562
H 5.3674652064199 -2.228383399169482 0.9584773218933428