20

C 1.0267673804983082 0.06670667393586072 0.4341832179645334
C 2.507235920059398 0.024406782543976383 0.050169939335941216
C 3.14204819004773 1.3912326062234595 0.20411163822924377
C 3.199538102006988 -1.0593943052808705 0.8545656806833927
C 4.606888159232766 -1.0281820392836407 1.2954195440196101
N 3.5240955540016827 -0.800341077859407 2.2358241890213213
C 3.2619521496590425 -1.8630052389276948 3.176975288548735
H 0.48489856528149805 0.7857175406048668 -0.175957091706909
H 0.9160764668612209 0.35223253152563355 1.4793480835630073
H 0.5540088738061466 -0.9113383091474084 0.30094973842273065
H 2.569324832278837 -0.2783640405176724 -1.0034279103754897
H 3.1874218018649234 1.6710984681804988 1.25883646704905
H 2.5663036141444424 2.146516391947987 -0.3251821566805926
H 4.160939953402142 1.4140904236975655 -0.1979665486024608
H 2.8108178237135384 -2.056403738295294 0.6484499632377476
H 5.24180259351149 -0.16966930085770435 1.0929864174394301
H 5.133090672295962 -1.978136541499327 1.3614492223417813
H 3.9156778358650266 -1.7559841769897577 4.039900482937783
H 3.4136032073973595 -2.861674891053261 2.750838165660983
H 2.2265745910102708 -1.7969678008167607 3.5196350963651297