18

C 2.494669121574109 -2.6257398216445087 -2.0204846865543757
C 2.983810707556848 -1.3999876541889666 -2.1802925637824497
C 3.2006333164409164 -0.4121103085969449 -1.0769077280630652
C 4.652266116839418 -0.006687130645609392 -0.9330144492461159
C 5.052312132745807 0.8808286489030653 0.25906503668163683
N 6.277006858017432 0.07756937351606441 0.39671143629499594
C 5.665372759905338 -1.0205212991256665 -0.3678095923457234
H 2.368669367138883 -3.3031847179684455 -2.8637323195693076
H 2.176563475270816 -2.9913321504943458 -1.0539273814360575
H 3.2870743029977767 -1.077825942752985 -3.176521114175813
H 2.8341937490010434 -0.8280276676391396 -0.13656812760960418
H 2.6002683431219715 0.4815338805177737 -1.2835945954278156
H 5.022321697888686 0.41802924037394457 -1.8655994392044841
H 4.352061986804284 0.7722164819712106 1.0975186647173205
H 5.22407820806464 1.9431116283929206 0.06964167077031688
H 6.55984153709316 -0.14774818871738016 1.3369398092882026
H 5.165515822193782 -1.7740282052880902 0.24873617751291555
H 6.325638483272413 -1.5253507552293593 -1.0720314142126395