18

C 0.8954920321226777 0.6604070289882034 0.37211921487214694
C 2.381768642161395 0.5120787489455251 0.27856654200940084
C 3.1913930568177147 0.30921828043371397 1.3139237627156168
C 4.664535190195245 0.16296898560328474 1.220415995735792
C 5.568772096021311 1.0198459820859282 2.1294717054943892
N 6.444935635752205 -0.14535045729102225 2.3128486939431943
C 5.343271890650638 -1.0364713662412357 1.913718844514852
H 0.572641189446086 1.6220766295105975 -0.027648721159886785
H 0.5553041417726539 0.5796825805424642 1.3976202570494658
H 0.3846148420115639 -0.11364912739383994 -0.217774976608278
H 2.8102101842994105 0.5715827186307957 -0.7142732967120418
H 2.7644390719944947 0.24705510944088782 2.3174962385835784
H 4.9888288278774295 0.2403341766975635 0.18562202869033534
H 5.029851840051662 1.3295647832340738 3.0390010411294477
H 6.045137585397305 1.8994725769551608 1.6880096220189469
H 6.801297585230071 -0.28900693265180843 3.2535990273352997
H 4.738592196937174 -1.4105968922982424 2.7418375678110345
H 5.641874831598608 -1.8860946735338466 1.2762963648002124