20

C 0.9043545970265147 0.08950264356604022 -0.05621459873103688
C 2.4261518727497187 0.05241697789110063 -0.016197001610945005
C 2.9609158092968912 1.2759292412347012 0.7259744133191048
C 2.901090447027215 -1.2794172895555218 0.5424963298606519
C 4.393904941872054 -1.5774829994728914 0.7620023271710472
N 4.026564018689311 -2.3326703641535 1.9742297769300325
C 2.7331731773058134 -1.6393748535448118 2.031271085099192
H 0.5338647193591117 1.0108667201571793 -0.5062986293656123
H 0.4834062383103802 0.0187573421240228 0.9516022515003402
H 0.5061520190078902 -0.7500842883798611 -0.630954070824351
H 2.7938001899928544 0.10749805992225797 -1.0512731826994683
H 2.6029815918983776 1.3032783551934564 1.7625486174366627
H 2.6276531950612316 2.1951687851486756 0.23297829200363682
H 4.048903585545617 1.3053644650533518 0.7572205179152283
H 2.467298012938165 -2.078234373800868 -0.056074797330356654
H 4.976707927455374 -0.6717397985084432 0.964868539618718
H 4.913493697008461 -2.170211254982024 -0.0017705804560487499
H 4.636280673322068 -2.202879343433625 2.7650484229545387
H 2.746711012291954 -0.7454371194803823 2.674746982327116
H 1.8903872296389725 -2.266692357799123 2.3154020517514184