16

C 0.967358327294001 -0.09397595001864481 -0.034917247101225735
C 2.4124967038810334 -0.09021283936898117 -0.008359945577969263
C 3.6160331388279716 -0.07648108065569237 0.008619472538527581
C 5.06582958030545 -0.06810315901680727 0.04279575011889722
C 5.797702859452904 0.9473282043516369 0.9542199704529063
N 6.775638665112311 -0.1033393531351939 1.2735299802114168
C 5.808091973375855 -1.1465089425252502 0.8635629253278926
H 0.587288914258437 0.008626677666250878 -1.0645846544034505
H 0.5572300609467293 0.7241846596902953 0.5545239961216853
H 0.5759498070157067 -1.0372200847848123 0.36690033618342277
H 5.47341781623895 -0.031666954073181305 -0.9630861529165108
H 5.166567395525795 1.2430978129693495 1.7927185467404085
H 6.2122159165130775 1.8364329285051801 0.4771866537827156
H 7.081780991550877 -0.14718590506670284 2.2362931441358755
H 5.1793451096178655 -1.514149273704867 1.679919464618999
H 6.2362121117147185 -1.9867415751266417 0.3253151864284281