20

C 1.5813564544456535 -0.49998368459259984 0.6211337525946298
C 1.749079858835408 -1.2373939494607271 -0.7001070250842699
C 2.7650549195228464 -0.6064211705327696 -1.6511026340284436
C 4.198154194373936 -0.5902954153881751 -1.1404950703454575
N 4.790131678280104 -1.8346637580742373 -0.7534362204280591
C 5.139601370376264 0.38280637772287684 -1.7803516697881099
C 4.679977138960522 0.6055362327718591 -0.3646008126694932
H 2.5019876562813637 -0.47933260585564863 1.191625161525772
H 0.8141481172887546 -0.9769334795066241 1.2339343565399044
H 1.271284453555887 0.5381704598783313 0.4543715861309921
H 2.031755469340526 -2.271393562581393 -0.511744834267896
H 0.7819403365347362 -1.2853539536574723 -1.2137591224437099
H 2.7463583377765843 -1.147494022942086 -2.601037645912302
H 2.4551879978078923 0.4213965369580946 -1.8799167870023448
H 4.769901222297439 -2.499512705887041 -1.5224749375781084
H 4.295006449514753 -2.2593721155853697 0.026749198674410193
H 4.760193186362906 1.0382244639872331 -2.555435940938615
H 6.161343510824456 0.04747865042721886 -1.9218242357089663
H 3.9784265978044626 1.4141159211967267 -0.17541218095279962
H 5.3896995251703315 0.41426375023376494 0.42345429409129826