14

C 1.2036733032106917 -0.028447551904347466 0.42287642291695415
C 2.466837347064265 -0.10867380559817538 -0.01155060268957331
C 2.9551719534858747 -1.2965207451698775 -0.6248085741565409
C 3.4097649248564195 -2.2796699668164524 -1.1430944852104683
C 3.444886477187656 1.009719581581092 0.10609531341863028
C 3.370663974313248 1.9977499437549306 1.1866005523614387
N 4.438555343904915 1.0004691466469637 1.1847986624048685
H 0.5255084887643645 -0.8682978797265948 0.3317206852838913
H 0.8166460851276088 0.882695994431562 0.8637862974267073
H 3.807603966421613 -3.1488849042895763 -1.611759687688505
H 3.878752940069644 1.3119607613032698 -0.8518669695138521
H 2.5689594425626354 1.8983054893344091 1.9146358252796782
H 3.6917768763802945 3.0216773174182667 1.0077586736911963
H 4.207104746385346 0.25182500697641635 1.8349868244108354