16

C 1.870739560984366 0.5254029328706836 -0.8397012141073128
C 3.0372985758673874 0.05588511921465924 -0.3946320059826607
C 3.386279454298493 -0.069874065586155 1.0002764441719247
C 4.560709717895557 -0.5495037468947442 1.4298424560625886
C 4.981208825529703 -0.6863849093794196 2.8375869023389213
C 5.494206477887243 0.4861477902292849 3.587281275701242
N 4.220245892778158 -0.1367036852491892 3.9476215852191276
H 1.6613237256871713 0.6108517276365891 -1.8992880471472513
H 1.1022728814333955 0.8466530462332162 -0.15685129700669415
H 3.7992297516656204 -0.2532262356614924 -1.1186476154931642
H 2.6307509875139123 0.22404244821475366 1.7149006640362052
H 5.291963215549286 -0.8682476821349583 0.6924366145222017
H 5.442514714673357 -1.644339257911852 3.0733199719476083
H 5.479614395939241 1.4423196963975258 3.0748946528588155
H 6.289086832260882 0.3592861277299253 4.31766626647657
H 3.458664003431034 0.43088213122202845 3.600961551836555