14

C 0.9076229269106415 0.0026325287681529526 -0.0030635979746046283
C 2.1068793519809508 -0.12455306052756561 0.006370446889635949
C 3.520056778215554 -0.25127338100316177 0.06209995087571719
C 4.240699982978331 -0.9173352424921636 -0.8517722660164304
C 5.7006800255240995 -1.0938133579858667 -0.8108267692022224
C 6.468641268043514 -1.0315062819400156 0.44731341314631556
N 6.262956979579616 -2.322181744354402 -0.20666976145380417
H -0.14911324907083953 0.11970831442689703 -0.030234156280288887
H 4.009074623146279 0.22625134138945932 0.8995385539368145
H 3.7315001656268905 -1.3662247498061093 -1.702610273152863
H 6.218708148525902 -0.8321175896677437 -1.7303059359748183
H 5.924121577618327 -0.8321571932752045 1.3740156457306367
H 7.488747888896635 -0.6611323607459088 0.43232360558010735
H 5.516585559229144 -2.8276484969603817 0.2715703617976938