12

C 0.880360720400235 -0.00044507370466029435 -0.022982988917447128
C 2.08452526356794 -0.03121403965742131 -0.019231652858663573
C 3.445774990888021 -0.07152746977226664 -0.010124894912666637
C 4.662215694442446 -0.09667300776310063 -0.011289923034459377
C 6.090450802252705 -0.11350554135820311 0.003289427093421683
C 6.815019559902954 -0.8106017494486278 -1.0941939842001587
N 6.832777633376679 0.6400455392680087 -1.0202815832281402
H -0.18539643124614066 0.022173234633045838 -0.024169412146671187
H 6.543898236273104 -0.08648488135297801 0.9835208448606065
H 6.214982838708794 -1.2840145346675345 -1.8641265013262949
H 7.7626608402245 -1.288818881567158 -0.8646458081183189
H 6.181755751935738 1.0359792279553013 -1.6820342572988853