18

C 2.4228990183956336 -1.025469349672873 2.17978144743474
C 2.3350389160777705 0.217553057650454 1.3763240842675541
C 3.3172223469257673 1.0124802260692203 0.9380832941013081
C 3.001819561677937 2.24747832768796 0.15532532386300693
C 4.749621550791513 0.727731867033758 1.2319568686588245
C 5.790184659596938 0.8507364658669552 0.17143431580713597
N 5.750146029527675 1.8067384169054947 1.2819251852962328
H 1.8045266790247503 -0.956753722415891 3.084908590221311
H 3.444935181411675 -1.2653436286028155 2.5037189544455316
H 2.053283070663614 -1.8852988023588622 1.6173705117717743
H 1.317509634815639 0.5133370028692575 1.1124120094516985
H 1.9391833766093598 2.2690644523305608 -0.11352375905211398
H 3.5710869788652264 2.295232227888645 -0.7753240476986284
H 3.211349883795804 3.1563548091663245 0.7166710694097959
H 4.928462721637655 -0.023068726041773353 1.9880053105405895
H 5.4718785715183795 1.1785598681400344 -0.8072365995781404
H 6.624635750782473 0.1742027889318609 0.18002988660118277
H 5.34113561577808 2.6777778699155452 0.9621200727538533