20

C 1.005971625522851 -0.6863650386703346 -0.5550460010624302
C 2.079677356920395 0.3845696433974676 -0.41749898384999756
C 1.7209322241412346 1.6120539284118982 -1.2402006060432749
C 2.3187772429845093 0.7196012176812338 1.0464153725446836
C 3.476715889624896 1.6468458459864403 1.3038409786009915
C 3.259662392919436 3.098728282229136 1.5044987195400779
N 3.661315329956171 2.237743332196404 2.6269318363597214
H 0.8513804827255056 -0.9653873117193728 -1.6034350581824572
H 0.04989753121228056 -0.3224010540090371 -0.1639275812397228
H 1.2742887196019 -1.5931655335819004 0.0050584914472848914
H 3.0133333996034213 -0.027875567670320966 -0.8216594658943097
H 0.7954547906828398 2.0664939351410054 -0.8747020630060823
H 1.5628120305317015 1.3536720858428235 -2.291088817715862
H 2.50801222588326 2.3764379754987988 -1.192471819911735
H 2.5041243608718706 -0.21985829654932795 1.597499448720763
H 1.4029553292011723 1.1477820530924354 1.476957886302493
H 4.410400661044115 1.3426373630414006 0.8357357718993854
H 2.237843045984376 3.4556563472950197 1.4737137969132834
H 4.000432146602437 3.8183149551145124 1.191304683998724
H 2.8610134837224916 2.032031850379802 3.20897702506369