18

C 0.8941114961905522 0.08336079275505168 0.09640803794934383
C 2.379335140376967 -0.018774507246443216 0.04018427062000256
C 2.9099899507519145 -0.9374166513627302 -1.0236960674430986
C 3.161523779473109 0.6458938994146887 0.8924061619080899
C 4.645060734370629 0.6262297055186661 0.9532491380452986
C 5.476815006490964 1.0749017977256823 -0.18432399205833822
N 5.369079098112876 1.8906838231704455 1.0173414629956103
H 0.4922007083645595 0.44996679469708595 -0.8552346990831109
H 0.5733147407280731 0.7654083779882255 0.893478853512591
H 0.4391775897575574 -0.8946013104982875 0.2848986015796146
H 2.5215659684382485 -1.9526440482027916 -0.8647398059764534
H 3.9962645711924987 -0.9840703515445042 -1.0355249125118438
H 2.556965317451866 -0.6289147439598858 -2.0126468426405926
H 2.6786675410973286 1.246703184434272 1.6590432910868378
H 5.0789873641302075 -0.12766481753380088 1.615771900661071
H 4.951954026906247 1.4024060060874661 -1.0776570647516828
H 6.446219071273565 0.6348198391232284 -0.3585985554033272
H 4.719391590152975 2.654528422733226 0.8496139222497143