16

C 1.0375166436240093 -0.2883996985876897 -0.026748539359254184
C 2.5476600213207354 -0.01969917862840148 -0.09090405618823108
C 3.0217160397392466 0.5369569882060716 1.172913388529198
C 3.4061640243659532 0.9696330036072283 2.2220837395323194
C 3.3022925374560197 -1.2775369741950966 -0.4773322958530799
C 4.725123005788205 -1.4717953516626296 -0.1556998942412444
N 3.6927380293403433 -2.2630274714355543 0.5196977808868357
H 0.49672321221225746 0.6193963845016 0.21319052795692814
H 0.818840734327539 -1.039057157553092 0.7334757258106902
H 0.6895151587844491 -0.6547159528266926 -0.9911831217319352
H 2.736729582114503 0.7307331695475228 -0.8678210923442959
H 3.73420065059473 1.3663806511429222 3.1528932298574945
H 2.925111705025773 -1.7214245755891213 -1.4025242275411292
H 5.217578415994631 -0.6907405282255762 0.41496123235869475
H 5.365521835373488 -2.0355390182976216 -0.8368832899982083
H 3.547063843006463 -1.882087302326245 1.4458087696183792