18

C 1.948458856984356 -1.3047110995097646 -0.5809414534026689
C 2.5653933844242447 -0.050637980920147395 0.04745452906721152
C 3.0707091539256606 0.9155894737882726 -0.9700314602935146
C 4.33023554076189 1.3224533104964238 -1.0714071962760057
C 4.86362650465692 2.2624218930419966 -2.0762048199667955
C 5.3065320553364606 1.7625373605388837 -3.4099031916431524
N 4.127901066290091 2.6165098068898534 -3.2721316634722637
H 1.5574239007298756 -1.9718970329454772 0.19285344279763772
H 2.6925701092804637 -1.8530526501090612 -1.1544148943128352
H 1.1259474937082992 -1.052013092890493 -1.2436400929480842
H 3.3737592798322704 -0.33769449792411216 0.7236241473236109
H 1.7969070648412269 0.43672520478735677 0.6602878090434057
H 2.3250303628927673 1.287188711808143 -1.6693278073094333
H 5.05619100381074 0.9585717606842574 -0.3431507778937797
H 5.429409277791405 3.0899097913839104 -1.6632070711843094
H 5.16361927124697 0.7126561136604966 -3.609392119564389
H 6.153863301788599 2.224407964602772 -3.8952040939791903
H 3.2833066119554553 2.0465836726408977 -3.3540134037464973