20

C 3.0164028980331943 -1.6356654180493233 0.4569317262086331
C 2.4603277797386465 -0.25550047368906753 0.8042160214177043
C 3.266147249379668 0.9181569757370508 0.2424834651573204
C 2.5510295473385844 2.2312358075341403 0.515397159798055
C 4.6699080102690145 0.9537689753364379 0.797484186056058
C 5.804011024817175 0.3345426066252826 0.08490098445596919
N 5.686343481985277 1.7833300745769591 0.16968003059851408
H 2.366770248256185 -2.424036960420618 0.8374157141142675
H 4.005036310294744 -1.781817617937405 0.8671378273299825
H 3.082157779345718 -1.765126142223242 -0.6287070243458669
H 2.398222851681913 -0.15082069073144036 1.8893747317808778
H 1.4388451874303652 -0.17551971314817297 0.43509832147456484
H 3.346314658944753 0.7883848191010052 -0.8431992503255066
H 2.4399299441798497 2.397008930412309 1.5972545871586707
H 1.550704402312026 2.237906924651175 0.07878466867764199
H 3.1010737163669857 3.0832906276980787 0.11666360122295304
H 4.713285091953344 0.9932891684559226 1.8874728093222397
H 5.588531813904291 -0.15052231725277182 -0.862352267442811
H 6.6294612788219585 -0.09249420669221496 0.6441761900379352
H 5.335947308821481 2.148870388775975 -0.7130851205167394