12

C 1.0282275745637586 0.19139147093485476 0.2332712965762469
C 2.333841888991868 -0.02379936667789314 0.07074445443820224
C 3.1082027935378376 -1.0601508223250005 0.8517420864622961
C 3.690238875936487 -2.0868096321517746 0.01025454526124053
C 4.155193552347937 -2.9308812411835743 -0.6970128322948707
C 3.087999125824655 0.7634441517023305 -0.857845596677928
N 3.699576986877561 1.4043162104630134 -1.5923804450542622
H 0.45681502943923696 -0.396406113327224 0.9309977056082898
H 0.5154337209165446 0.9507266819136667 -0.34155869256415533
H 2.446423980827544 -1.5077171207898057 1.5951102586094645
H 3.9180590431790057 -0.5650933366487102 1.4129909878644304
H 4.573752400497537 -3.678319657931532 -1.3305572760979538