14

C 1.0749875188039013 -0.15534018058802207 0.5323373271251878
C 2.374787638179576 -0.02749185478557517 0.2924930940751144
C 2.9342081712030708 0.4223726666661898 -0.9665184235023583
C 4.235645843751231 0.5588623030524633 -1.1983237067593153
C 4.803129806179014 1.0438832146965458 -2.499294451109863
C 5.7616718127572994 0.11276956225748144 -3.0810617634080253
N 6.51485394061623 -0.6322973389049605 -3.516658063393242
H 0.7025969336604045 -0.49506365486997445 1.4914855660150341
H 0.3389490881033024 0.06302125865156451 -0.23893405720510125
H 3.0874265808455 -0.2613195118497601 1.082169413687335
H 2.217515995633188 0.6475022890534791 -1.7615763813797787
H 4.954006909791689 0.32705017139371406 -0.4183499030921079
H 5.319839542583925 2.006266927215327 -2.3615707051230466
H 3.9970268243461615 1.216257365446639 -3.23106188875705