12

C 1.3402565125612536 -1.064294320503303 0.03621851603538504
C 2.1858234565746772 -0.04817154698560393 0.08939602658912044
C 2.9498648355366957 0.4564687120144438 -1.1097566889404629
C 2.6241465720881005 1.848107224342952 -1.4066609925987894
C 2.3396145586156676 2.986872903468928 -1.6350350554070463
C 4.401123629499021 0.28935650748929204 -0.9009172650397936
N 5.520642423403897 0.14419600103519437 -0.7192706287951203
H 0.7995364385508531 -1.397283364220218 0.9164494243927781
H 1.1612820123510808 -1.6074372367373404 -0.8903182169341177
H 2.3589324426079985 0.48308069849806434 1.019590212018097
H 2.6859952740420137 -0.16177560449311817 -1.972597887993036
H 2.087965864993734 3.99890728540728 -1.8421253722855278