12

C 1.0152040213166464 0.1482078969581948 0.09198357449934425
C 2.3422984263832882 0.006525493583304691 0.024265899747947475
C 3.0361558120569847 -0.3439412085120079 -1.158172680666952
C 3.654516609301231 -0.6518276217269818 -2.1443996864631036
C 4.406267836355203 -1.0134250493351968 -3.335347240327674
C 3.5463240661777973 -1.2290510949116924 -4.508636933765095
N 2.8956184833150775 -1.399608062790926 -5.436338178251975
H 0.5437104747959791 0.42900779530852745 1.0274428059999627
H 0.3789782237059477 -0.00306323753990483 -0.7681446690700322
H 2.9524944042138292 0.17410571549333168 0.9114862749622255
H 4.970927535901368 -1.9324054307045981 -3.1655118689860187
H 5.132292619174231 -0.2390541748470318 -3.585314239160302