14

C 1.3129517584080614 -0.39461548644768774 0.8746064050506308
C 2.1465339965821273 0.1747223298463556 0.018759398136999755
C 2.9582206230754684 -0.5548104686102134 -1.0114496220023461
C 4.424314514811325 -0.4075384376739055 -0.770253736495306
C 5.269288730198474 0.14594479527056542 -1.6416459520945246
C 6.665252225185408 0.2780600360385252 -1.3712357914304607
N 7.789211875018925 0.3974333105155889 -1.1884818037446114
H 0.7579020342107917 0.18624273921725518 1.5908411161329719
H 1.1498356263033873 -1.462290352814101 0.8768314557554119
H 2.2939627141584205 1.2570262063992919 0.049405283671099844
H 2.7153230873755088 -0.1936916587014539 -2.0175706426716835
H 2.6989117887087253 -1.6222123955976548 -0.9723295348390439
H 4.80500372222988 -0.7752272575873346 0.1796249425263587
H 4.92582400846461 0.52933026352743 -2.601604540687802