12

C 1.6000582617668195 0.08800595474985706 -1.2646535526693479
C 2.425336462373355 0.12264801797147956 -0.22298661392861654
C 3.160689286523082 -1.0740439799903543 0.3006353574453051
C 4.595961166612282 -0.8829063771449547 0.3395112118016301
C 5.780483480236323 -0.6966364958058263 0.37653098943943236
C 7.13483467879563 -0.48712501657689783 0.40716676381710204
N 8.281587790160884 -0.3222957239309134 0.43334065821789425
H 1.080082423918288 0.973868814706305 -1.599813350827445
H 1.4242535742247384 -0.8256267139644335 -1.8088103590516016
H 2.5957454810017304 1.0602661293344888 0.30173042352200347
H 2.9291203084618975 -1.959943776602287 -0.3079905836662773
H 2.814186605064491 -1.3026762344688176 1.319326678980631