12

C 0.8572252043806193 0.0027720871361818474 -0.058215359517251423
C 2.0650287668952587 -0.03199854445274725 0.0028858277356572353
C 3.4772529757210324 -0.049112513663842824 0.03877377117484937
C 4.186474582237034 -0.6495292701469917 0.993666403443703
C 5.689569955525589 -0.6708640587490394 0.989886985585183
C 6.2560697457665 -0.1525543398898386 2.231473235165381
N 6.692062106959474 0.2631419084721466 3.205461042960442
H -0.2074825460745898 0.028768224520790222 -0.10887279864634047
H 3.9895353084610607 0.46787924786679125 -0.771465419907911
H 3.6913207909385197 -1.149001517775031 1.8070586302403489
H 6.082760431014155 -0.09731905602351495 0.15158088008550458
H 6.0507142003858405 -1.7017322882695118 0.8734895625568497