10

C 0.9481514403950285 -0.10169218897355468 -0.10304411488013303
C 2.139706799950724 -0.09076852087266764 -0.03956008954611375
C 3.595683173789631 -0.07834552207909684 0.028920759418312892
C 4.109353029680403 0.21668044080788895 1.3602087828494542
C 4.535694567865399 0.45925052937940597 2.4581558439858457
C 5.024008042006818 0.7317332919699633 3.7041661265468124
N 5.444238040971765 0.9640835098516454 4.758029694837857
H -0.11534850329364044 -0.11474299841660401 -0.15232088723060147
H 3.9929610844662715 0.6722418764629946 -0.6694220308860405
H 3.9969348117313643 -1.0431690968354232 -0.29315234113989536