14

C 4.1072885695739725 0.8806614708798043 -2.4772392975594513
C 3.9099119916545715 0.4199648980003425 -1.3911998043921372
C 3.687909407026533 -0.11638926593332037 -0.05559396680906687
C 4.323929529389639 0.7348178377056325 1.047499108321651
C 5.84007307613558 0.8292871156331661 0.929309444747199
C 6.493053894140921 -0.46559174608918713 1.1172632144312562
N 6.974588978512321 -1.4909168288927448 1.2757659035726892
H 4.275509835149315 1.2785887058492806 -3.448625353745203
H 4.089483543300906 -1.133890352245509 -0.006095869912901385
H 2.6124678741822955 -0.1927754095845298 0.12901938626838583
H 4.046412163877546 0.323938020839654 2.015809631529076
H 3.9194562279905525 1.7506599573752286 0.9883870851466554
H 6.235775769087322 1.5185260139684469 1.6820110232707681
H 6.121777817714218 1.2162236452687574 -0.05409939831732336