20

C 0.10158651790863411 0.14931046803069856 0.13085164355128426
C 1.5631940390060057 0.39539410471195147 0.20343314463595905
C 2.497415549270893 -0.35015343689046846 0.799988512883579
C 2.206292674470592 -1.6428086445414065 1.5039628549165358
C 3.9586367280862165 0.0511328351622729 0.7835514824726661
C 4.549384684253371 0.061497383712382156 2.2041823073489137
N 4.181795969155336 1.3044418273093983 0.07908671686125968
H -0.45168717221533095 0.9820497743686013 0.5688250885457455
H -0.21486674250439186 -0.7596752877438393 0.6477314628401679
H -0.22596279674189249 0.06541182039632165 -0.9129457849330405
H 1.913327891673058 1.2853668261204332 -0.32112056094049146
H 1.2380214093744364 -2.047334698942037 1.22279922788172
H 2.2156921507649665 -1.525402016611973 2.589959682419455
H 2.9640665004029314 -2.390715848443927 1.2660503831947356
H 4.482848333778665 -0.7197628786600612 0.21667803992069923
H 4.46972762003132 -0.9113008652598307 2.6968033314135957
H 5.6102072011981985 0.32550843386721157 2.1695372550143937
H 4.037363428813854 0.8020229633556233 2.8185287524712375
H 5.172738948122461 1.4667562859908014 -0.00929452111488794
H 3.8004311204985615 2.070573391449255 0.6229495488614911