20

C 0.9483663662780454 1.7658984756210478 -0.5240123244492039
C 2.1485129436250805 0.9105129441727813 -0.7392221378285697
C 3.377487595948397 1.2230021223989818 -0.3764604589615671
C 4.614352923337909 0.3901617549710989 -0.568167409924695
C 5.077097499293308 -0.15658760803169117 0.7798049588171062
C 5.719152418470965 1.2720104327572954 -1.1658457712813115
N 4.310698728123313 -0.7553074408947175 -1.4220148057323363
H 0.19582590356299442 1.2470921823827867 0.09245454888043712
H 0.45092843464034466 2.009476939013854 -1.466574551767347
H 1.2009334559438931 2.702158715971047 -0.018590377181755408
H 1.9824628961027886 -0.0569681570793432 -1.2257343807656047
H 3.5535998876793387 2.174586089622968 0.13480019587484718
H 6.001586443170777 -0.7269579684485954 0.6686537705793361
H 4.311965097536854 -0.8110868619736854 1.19884458099627
H 5.2688775571626705 0.6548198470612882 1.4866656884811518
H 5.937058472565838 2.1274652023007383 -0.5166560928507001
H 5.422425019825984 1.6669740569867204 -2.1375811063498134
H 6.64609503856376 0.7050674083478835 -1.285929673084028
H 4.088462907655984 -0.4408251661727586 -2.3596632432237437
H 5.133216798419737 -1.3481081125971988 -1.4988375031228502