16

C 0.8029881936562315 -0.08183424854552833 -0.14936424595527928
C 2.2938994801923704 -0.14369120664043303 -0.22251217226188894
C 3.0675472397944508 -0.7092945146268105 0.6888011040622944
C 4.568630049283657 -0.7363086577928527 0.6131371272712187
C 5.226061338823061 0.021341085523828435 1.7751556757498017
C 5.04903709595811 -2.1169810622778362 0.5787602022528651
N 5.430418491103213 -3.2073582585800877 0.5771918282726576
H 0.450963754560023 0.9517515429477996 -0.16298016320373593
H 0.42361211643614544 -0.5568956888589509 0.7483482527138046
H 0.35080990214788527 -0.5790988380098773 -1.0153912789783883
H 2.754668145344974 0.30874956812069176 -1.0917974536939345
H 2.6279614788891514 -1.181305357034072 1.57084482563997
H 4.885307770998641 -0.2801682587598867 -0.33452881003976453
H 4.925222080489931 -0.4219013429490258 2.7312775637122826
H 4.904982200777673 1.0579596858208344 1.7526763509013978
H 6.3130424991682785 -0.026044288043125897 1.7146477649301146