12

C 0.9134584095649966 -0.029503444071975804 0.06823557968092603
C 2.4041709376173594 -0.05045546726648088 0.07199095830488425
C 3.135960018018506 -0.9994818268156078 0.6641727655195229
C 4.543072841116609 -1.0089594216008964 0.6705134902577223
C 5.752076946996504 -1.0408704249159144 0.6835888004234129
C 7.114109988385742 -1.0587996660634935 0.6949890145315091
N 8.269927913642531 -1.0803425681950802 0.7040006402818858
H 0.5338957896680336 0.838192249041335 -0.4688529961897156
H 0.5137992519481724 0.006778190509639464 1.08509496464028
H 0.5077710517329699 -0.9211155098762595 -0.41627273565415535
H 2.9300271437626577 0.7566495279503632 -0.4243856570566611
H 2.655017482300941 -1.826755568144713 1.1860573113660329