20

C 0.6800936833276822 0.6892186541488122 0.24441020026121724
C 2.1610135744021224 0.8681399932411422 0.34981726409215586
C 2.9629682755274525 1.183582663896005 -0.6554159662493306
C 4.440682427550298 1.3474255106514361 -0.5694222345181092
C 4.947108073566599 2.7227401087413035 -1.0077893193973888
C 4.4323889919370965 3.836457244015958 -0.10340422569422955
N 6.403698105334591 2.666558203936983 -1.107659466693089
H 0.3864819280443357 -0.33038769472091184 0.5380004576911934
H 0.33022868376901043 0.8601485551188813 -0.7728872190699995
H 0.15268714846027182 1.3769313887121302 0.9115677708730622
H 2.599794689320358 0.7108439803466309 1.3358497894865158
H 2.5230347262194663 1.3336984997403458 -1.642505743814109
H 4.940019568940604 0.6026173121289019 -1.207008050607219
H 4.77538012826921 1.1508362774227716 0.45836031869588917
H 4.5748430933198545 2.898995429422079 -2.0255471991092384
H 4.791954745338448 3.688904894563732 0.9153345637266699
H 3.345404418602732 3.8548495430024228 -0.06951536926127252
H 4.782798204380871 4.809606595948387 -0.44879138407809893
H 6.805651736210115 2.479189543622631 -0.19576489978611106
H 6.769930886777347 3.5546030543647555 -1.403153269409407