20

C 3.067468588558064 -1.9402564450801405 1.3209341382213935
C 2.855386617374292 -0.46725875874410255 1.1246248050190102
C 2.156896993339915 0.26486913412117796 1.9899708585815659
C 3.4630259260417877 0.13187325149610243 -0.11647497074380753
C 4.975959216049518 -0.011864050416549948 -0.23568068847311577
C 5.742001777159676 0.6812287615956761 0.8771988648381368
N 7.177798780708982 0.5802075873768864 0.6447753658435771
H 2.5232021683560735 -2.297436028705015 2.2081955738943577
H 4.124079589353129 -2.1767524763587205 1.449447208442806
H 2.719882716470715 -2.5019539918264195 0.44990893136383436
H 1.7105401956425943 -0.17774355968117814 2.8705929164589503
H 2.0134972228655847 1.3224196609639798 1.829896274983839
H 3.1948657241164744 1.185287071735481 -0.1706823238100193
H 3.003432557139177 -0.3462976801968747 -0.990455418050106
H 5.307089959646681 0.40348623237302267 -1.199165459586688
H 5.256312930239246 -1.0782470793398227 -0.26149022350141116
H 5.417047598085332 0.27684222387967583 1.8487838485053998
H 5.471216299161777 1.7391412798977857 0.8819894879449617
H 7.469903160344096 -0.38754373482581495 0.6733957864563559
H 7.690281223254489 1.0624830824589724 1.3735723962376605