18

C 3.5638941304399103 0.7553023950167014 -1.2531241153054253
C 2.679557989535338 0.045137514587876376 -0.26505585811846216
C 1.3448363249194113 0.12821630078283153 -0.33583713045074964
C 3.3402404241397137 -0.7564805768279013 0.7840356836740592
C 2.9239221674843563 -0.7454018010174054 2.0505992284878993
C 4.542837965285856 -1.5697628419708616 0.3877032742325276
N 4.235240246026684 -2.4374929115545396 -0.7427428206757668
H 2.978052208719887 1.36400774386411 -1.9370697127033325
H 4.128665644784217 0.02029222512805891 -1.831520845453386
H 4.279062812139143 1.402294604176216 -0.7469010974393545
H 0.8638132650302287 0.735290855085806 -1.0870597914700308
H 0.7168016045296025 -0.4265600564945637 0.34429760575531143
H 2.1052302107094727 -0.10831559284754175 2.3690098463971587
H 3.4022830249775398 -1.36102308410397 2.803719114756233
H 4.898729377329005 -2.1102316239506043 1.2802379520833693
H 5.342616235253466 -0.8973195978449268 0.08285874816930691
H 3.497480655867824 -3.0885967576288027 -0.5109279654457867
H 5.04466202899412 -2.9720525488039886 -1.0098728878213798