20

C 2.9709494224813247 -1.3535913963170838 0.4778527210210357
C 2.5356819865621802 0.050719831743090235 0.15945454603222858
C 1.5916009875526982 0.6312226616989902 0.8900545878308307
C 3.240875043138406 0.7439024850362367 -1.003739754598049
C 3.1340224549435085 -0.10654014479693119 -2.2719631234411124
C 2.6660575221398486 2.1207722186828843 -1.2935981603388056
N 4.672108154523497 0.9318951117641553 -0.7298952759097754
H 2.5144471461053426 -1.701509008305247 1.4008160339409923
H 4.057857567370437 -1.424102628209894 0.5897713750859711
H 2.6860942461829556 -2.051204065770743 -0.31588563675919146
H 1.1343389189675916 0.11417248225335111 1.7293317675519582
H 1.2231428017785113 1.6365574462751615 0.6871443576511228
H 2.0860528897049524 -0.2836238421866519 -2.536095610040742
H 3.6200414414557676 -1.081048583698747 -2.1432239052469098
H 3.62043975823674 0.4134775429078722 -3.1015844799845826
H 1.6112743795960682 2.0770431497113715 -1.5587535801588568
H 3.214360066849404 2.5695089978546934 -2.130810819645734
H 2.771388352770759 2.793492388706267 -0.43092013759622805
H 5.142957514592851 0.04051104624442665 -0.6325114162184369
H 4.785850306051031 1.4357040248843727 0.14153179651626943