16

C 0.8549166090409035 -0.22170446754138723 -0.16824228077407777
C 2.2599854422847585 -0.08305653493749385 0.3012129367035961
C 2.5777860109386452 -0.07986184458947616 1.588564066094728
C 3.271645977465512 0.06363901502133557 -0.7981022338928869
C 4.718365258368549 0.21253005661801935 -0.3425695259622913
C 5.626955840345537 0.3439565215315147 -1.4707215921796926
N 6.336407276483582 0.4556925764387331 -2.3743499294089876
H 0.15384085972385855 -0.32628720239309483 0.6600080903962985
H 0.7437976865436409 -1.1068481353032005 -0.8227998153840653
H 0.5488933627787385 0.6390019422231449 -0.7663655074621307
H 1.8119165713207686 -0.19689271699030442 2.3520278510506665
H 3.5970458752412138 0.01490478380157089 1.9506926705787389
H 2.994695586901344 0.9303251821161632 -1.4202028884597018
H 3.190664754096346 -0.8008076835249923 -1.4747942534089362
H 5.0352125256392135 -0.659686777894465 0.24182837072602734
H 4.840198206037686 1.094444562750013 0.2937832466010239