12

C 0.984912556822693 -0.09715530592094887 -0.07277980353553204
C 2.4673366795581013 0.034328342471674614 0.054234124276471715
C 3.103976996211138 0.9037506763144291 0.8634337897267736
C 2.450965299066302 1.8103560164707817 1.723262066814253
C 1.9294421292348212 2.5959250139775514 2.4675638403882103
C 3.249827227454728 -0.8261302895360797 -0.7670744031850822
N 3.8568246088230222 -1.541143178037089 -1.4358313018986346
H 0.4822338917077397 0.6085845494989084 0.5954031697210728
H 0.6700978429216253 -1.1127237989622616 0.1765833898171349
H 0.6680836844333792 0.09443848772344009 -1.1045373013976116
H 4.186857202425615 0.9149470601827822 0.8781367284730095
H 1.464272881366285 3.299523777510608 3.1221440833604834