20

C 0.8405920640730581 0.19554979298355551 -0.05658054245309241
C 2.3637790204501306 0.1445021248529525 0.05456064055637401
C 2.897158575118891 1.4604824822768263 0.6155543485260366
C 2.8037498869972186 -1.0040309674917343 0.8873340316607792
C 3.5726219688853185 -2.0088842980179957 0.486556392974017
C 4.00722890200952 -3.152228973570666 1.350568657656213
N 3.630453931689282 -4.421649369917637 0.7310828149249551
H 0.5112787979409057 1.0357799206161782 -0.67553459339322
H 0.3898863804748574 0.31415943625486564 0.9336108584921153
H 0.4445883237139471 -0.7233595272736891 -0.4920618018663562
H 2.7740634891174354 0.01527210063223175 -0.9554522763110265
H 2.5292789308803125 1.6308328263042022 1.630468053574356
H 2.58759458424968 2.312572994712654 0.0018359607187958303
H 3.9931385670880526 1.4582630123732412 0.6598840296705342
H 2.4546166072936235 -1.0060219758176694 1.9251054069878257
H 3.9200372675554624 -2.0387080894225584 -0.5449699741647828
H 3.6152551645569297 -3.003405894374359 2.364297302474562
H 5.098813343754562 -3.141600213336354 1.4282728462336043
H 2.6157899332591104 -4.4958117046818655 0.7023796047353752
H 3.975941562260875 -5.195611263489355 1.2822270767017925