16

C 1.0275678322647392 0.09851934736854406 0.16658268442163268
C 2.541602910119591 0.07029619979607961 0.003206916769267247
C 3.24320615073254 0.09687181825165718 1.3623776422300433
C 2.990065146954012 -1.127474273340106 -0.8036244241882664
C 3.623325032398269 -1.0508658032537652 -1.9770482345591336
C 2.6863138569667786 -2.4147581203980035 -0.26007780047604023
N 2.432932906665038 -3.4307467054630787 0.21379972174118272
H 0.7168751742494442 0.9820367035916185 0.7197569645311919
H 0.6789351783480796 -0.7844690319164801 0.7088362166013857
H 0.5284143176410238 0.11296609136721918 -0.8098363500927841
H 2.85638635658285 0.9558463880173724 -0.5602399703787102
H 2.9672046073574823 -0.7857932129283449 1.955559015637651
H 2.936747348446717 0.9854929851461263 1.9295051060337973
H 4.326947632148243 0.11737205866405326 1.2641137673070215
H 3.8559085892698195 -0.07924859127479945 -2.4116078299162176
H 3.9209450506768757 -1.932310870304771 -2.523243939068778