22

C 3.047974722438452 0.8828377169276441 -1.5804269243189613
C 2.718570288446819 0.08216854434865793 -0.32440975726797683
C 1.2371176543364153 0.2176899252602121 0.01160712262041461
C 3.162561032659502 -1.3815067752349515 -0.38754728554757223
C 2.4744793621604275 -2.2011089810295243 -1.4681893055062827
C 4.683573722735864 -1.501916373882888 -0.4882539616411234
N 5.116431222370499 -2.866842631594929 -0.21001935502178606
H 2.759229851281875 1.9256868546965458 -1.4537851047137234
H 2.5132200192400207 0.5061962379788962 -2.4518917761955974
H 4.120719052589786 0.8609297108900824 -1.8053151262813714
H 3.273730478894826 0.5425853786379649 0.5039209943270695
H 0.6047772372494059 -0.14661587024289213 -0.8069156380976199
H 0.9633006612694485 1.2641489288957395 0.19390853263816912
H 0.9739428161664718 -0.35256964890191744 0.9099571112457423
H 2.8841140889277703 -1.8256311172530268 0.5875682553974493
H 2.6690915519563765 -1.7839591308883223 -2.463943895920695
H 1.394833881219637 -2.2481547388961594 -1.3274745695779655
H 2.872434763768977 -3.2245194809755433 -1.4581230287454858
H 5.14603807669812 -0.7501915215249566 0.16982500955230176
H 4.997258664646969 -1.254318058191075 -1.5049378446772905
H 4.9804910896299415 -3.0899344143227574 0.7623808390427268
H 6.107140982393998 -2.967234788855889 -0.39249025128574927