18

C 1.0978643041316196 -0.2255690430003101 -0.13190863208556802
C 2.6022718552834543 -0.016960475677003244 -0.13276744061876056
C 3.004991561841195 1.007423728595604 -1.1796892206561198
C 3.109612317382443 0.347763341751406 1.278742101020791
C 4.635118845497215 0.36941295112543954 1.40375018078561
C 2.5518145341794987 1.6219542789135328 1.7347722876206582
N 2.113789164136013 2.630124271112915 2.0709033442600244
H 0.7492218499256662 -0.5528129051700662 -1.106198966048116
H 0.5654507574052614 0.7064953618232692 0.11572375385734918
H 0.7977628310119734 -0.9837574140274227 0.604112052159791
H 3.0849928064784478 -0.9731898238616967 -0.3687484162275975
H 2.5713410412360074 1.99275063618591 -0.9642755692596179
H 2.644759395511066 0.7024698584208802 -2.1645856544623925
H 4.088695064793293 1.1229824607002812 -1.24886212267413
H 2.7207517098059877 -0.41768595182342966 1.9646381532472181
H 5.067674853802797 1.1657254611533896 0.8058284907725716
H 5.043895199235789 -0.583668274636917 1.0668040595382708
H 4.932245423726482 0.5278254480699357 2.4463748776392564