14

C 0.899816699411302 -0.020251280486338133 -0.05666265602544477
C 2.4290713646687268 0.022672059999953833 -0.06945154460788006
C 2.972613590609114 0.6025097300682222 -1.3784803673305552
C 2.932256965420611 0.7707725225909527 1.0681611025834976
C 3.3396480732555465 1.4010014078447992 2.0125188713387727
C 3.8072228488563082 2.1189341846022653 3.0817913429078994
N 4.194631946613929 2.72765508454519 3.9799897339707706
H 0.5421536489829374 -0.6317028221553211 -0.8943719160091737
H 0.4836956840139784 0.9828649700871179 -0.16233403013882686
H 0.5251074747340436 -0.4546762165831163 0.8710972883657613
H 2.8084712443129347 -0.9959450484893098 0.03725722956179061
H 2.6121219155786255 1.6321888369534838 -1.5200191267025767
H 2.6224853497362393 -0.0029543691607243363 -2.2187410787097743
H 4.060318405301879 0.6130437398775904 -1.3827084204680848