18

C 0.8704056685079874 -0.20553230359626937 0.17192329750769145
C 2.363340252831007 -0.17297800881062692 -0.13648908935667442
C 2.7043253205436657 -1.124298669686894 -1.2703658417568977
C 2.7874205353175077 1.2637151720260131 -0.4285987579031405
C 4.291155040441008 1.4699467208058004 -0.6198529518036956
C 5.069631234607321 1.0764957329720601 0.5487823649715462
N 5.6653454089885855 0.7663091301013851 1.4750870872568729
H 0.5415765798023678 -1.221206565303615 0.43102010339497937
H 0.2804476396636497 0.11620493669204839 -0.694500997958744
H 0.6172292848484608 0.44870535811430284 1.0131632890232234
H 2.8961095888319077 -0.5032444882858866 0.7680999392722744
H 2.2103510878912744 -0.8023557516074061 -2.202772140395103
H 2.358226436139116 -2.1338647838386637 -1.0389199110793972
H 3.777896086600834 -1.178770827140848 -1.4589881804904403
H 2.451497961730919 1.9174875537335305 0.3817666013644662
H 2.2936120908302415 1.6148261047880166 -1.3410567844996697
H 4.506342792120052 2.520733164774284 -0.827714563507821
H 4.657004454651799 0.8942940627092688 -1.4720765896110402