14

C 1.0667309735722477 0.0630429821776696 0.029666338338547683
C 2.5898023745937944 -0.0205701800606822 -0.01731953877620653
C 3.0547604968022526 -1.1869699210497129 -0.900337461092962
C 4.493583343130483 -1.4098801770969414 -0.8640123060021772
C 5.682880464701001 -1.5735205788931688 -0.8249445306933241
C 3.1450924761554027 1.2411083199283819 -0.5017276077753827
N 3.553979474182223 2.250590791745033 -0.8845109819942992
H 0.6622503086055419 -0.8662844962552175 0.4501349556503063
H 0.6502340168685674 0.20716051984338557 -0.9698404419882228
H 0.7376569876113673 0.8994359995371675 0.6556440552029644
H 2.981620791668659 -0.17279818903249278 0.9869694857353173
H 2.7284385499692756 -1.0247834372502553 -1.9294018856128616
H 2.545252213155131 -2.0890281398843222 -0.5481757002938044
H 6.7296423264598895 -1.7102163657640297 -0.7895033860558777