14

C 0.943646887747219 -0.07484424102400247 0.06990360206921098
C 2.3947545123910476 -0.04787738492446629 0.08172750842721228
C 3.5910636039806008 -0.028960101133516672 0.10189659059385196
C 5.052855169730903 -0.0077638092937077205 0.09785308573824236
C 5.628697231996806 0.2953999782980085 -1.290696243405559
C 5.557826766607092 0.9616547412561385 1.0735333538473377
N 5.983695191466764 1.7110049184031044 1.8305292832431201
H 0.5586272232278825 0.17309037765408206 -0.9228804911231931
H 0.5423627805691505 0.657842278193745 0.781758499850466
H 0.5674694785079754 -1.059621039384374 0.35608478080327377
H 5.414900581070849 -0.9852503252600443 0.41501193762723043
H 5.301019295001774 1.2801576005832047 -1.6409621026831835
H 5.2816250800895554 -0.45629699995985873 -1.9950434400052188
H 6.715848397762455 0.2792715666610681 -1.2631492526431545