18

C 0.9888929143584201 -0.09388768157987619 0.05533828140993057
C 2.43320598634407 -0.11579426980030547 0.05041801496186535
C 3.6425430394873253 -0.12920225308197944 0.030749357848957694
C 5.093971285670598 -0.13032256444380966 0.0184839005934287
C 5.714260622912708 0.6575560134481979 -1.136804671821151
C 7.220306860067456 0.7816392409579053 -0.9342600012226554
N 5.338941771404279 0.030317876104027627 -2.3956198707935745
H 0.596704418263011 0.006500898772536172 -0.9584007158195773
H 0.5988178099441166 0.7355413084686966 0.6550268860234346
H 0.5828046575350073 -1.0295319273402415 0.46816637084791146
H 5.459368506920593 -1.1654518020039755 -0.01722013605204089
H 5.458312109740476 0.28241569524974575 0.962975842726479
H 5.274791802360355 1.6564850914285691 -1.141960615579073
H 7.690432773804937 -0.20799407304485512 -0.8927668720563889
H 7.456995100350721 1.3061132845580747 -0.0035631154930881137
H 7.673481206009082 1.3386891681314295 -1.7561996639095545
H 5.738386486397139 -0.8958656849095129 -2.461623351016853
H 5.705049114961676 0.5679910115902383 -3.1830933484639745