14

C 0.9469115657092534 -0.08719578277043716 -0.056937488404074005
C 2.403260806283937 -0.07755974330983732 -0.06343786043496065
C 3.6061586369196954 -0.06325959201715592 -0.07172388307613446
C 5.057570867608178 -0.07431343335724615 -0.0684202004990951
C 5.615813911246957 -1.3183009530508802 0.6346099249310496
C 7.068391759992913 -1.3338511759328555 0.633057704703858
N 8.221620177965548 -1.3266270474936839 0.6285879096787931
H 0.5641209611350068 -0.5392344214703217 0.8565375193199462
H 0.5600190524006984 -0.6371926497843914 -0.9046319054140463
H 0.5591835292570579 0.9355744661103123 -0.10689800532372119
H 5.43601722944208 0.8207275347547686 0.4255569642875742
H 5.431369133949295 -0.03338635775017599 -1.1038381857382915
H 5.254586765498445 -2.2215793929355123 0.1307068557230897
H 5.258275164936798 -1.3604926573818776 1.6597004196855696