20

C 2.096000941535692 1.3618365238847567 -0.3308819995401792
C 2.7711127424361526 0.07069453458775067 0.12336054947161572
C 3.111392436338412 -0.8405366524145361 -1.0079839006659297
C 4.33203644728148 -1.2476368304456666 -1.3111191917962441
C 4.72770726870676 -2.1490461939431524 -2.443018590104223
C 3.5802498458493206 -2.5758000352562833 -3.3476137585715917
N 5.835474681743769 -1.5078275963961347 -3.162065122778598
H 1.8232384734475198 1.9890856024627384 0.523436974124041
H 1.1755701944124732 1.1439345357043238 -0.8816667388608315
H 2.7505099892210416 1.939069498652157 -0.979680935262056
H 2.109920602537142 -0.4583788160013611 0.8223997986124414
H 3.683440945108293 0.3069303537515212 0.6874386681060101
H 2.273571495264454 -1.1651080175450854 -1.618534294363832
H 5.170913118837137 -0.9092132201834081 -0.7061389564508239
H 5.1584491541714605 -3.0573121689255465 -1.9971355288725794
H 3.1112066912586864 -1.7128104069152148 -3.8203293495588615
H 2.8037401320437136 -3.1195675732592583 -2.7902215266230517
H 3.9425907519711494 -3.2342145188907563 -4.135148452755058
H 5.511829432288982 -0.6486560432743966 -3.5930303706528117
H 6.175474034028164 -2.113815012169998 -3.9010610620050583