16

C 2.6702588552206596 0.032101059022832015 -1.7552325370746036
C 3.064956254142933 -0.22285733447414355 -0.3070142699478533
C 3.0461071861129145 1.0254255408842528 0.5152023925809651
C 4.094688260935863 1.52566126746042 1.1633819370894753
C 4.03278727011387 2.772680292834468 1.9920076083820504
C 4.991525981419248 3.777850093378464 1.5435745088812505
N 5.758731231459661 4.566774879380374 1.1972393538710788
H 2.6581661401611636 -0.9006827673586629 -2.325539679934487
H 3.364902005972527 0.7161706995111728 -2.2428662053829527
H 1.6664533893529128 0.46651098124985674 -1.8169476715823207
H 4.067158575588476 -0.6715648514637644 -0.2646825662587447
H 2.3775552864634983 -0.9496091380029621 0.13021919534665896
H 2.0912117310795857 1.5531217207751227 0.5629123179549365
H 5.051144414129285 1.0271902041117051 1.114967763666237
H 4.250189336603406 2.5576812727948464 3.0417132575798798
H 3.036363027901896 3.216276096578638 1.9580012464029608