16

C 2.896726422832637 1.4319681152653108 -0.21160570975959203
C 2.5573545882017363 -0.023162740513993984 0.09621704259689245
C 2.889664071599073 -0.4453198325932182 1.4962504981886482
C 1.972747202151307 -0.8826754141866768 2.3606813380817604
C 4.33703722136755 -0.3324197459896825 1.9260869796073878
C 5.252394704740337 -1.037215554447153 1.0380267695266565
N 5.962764473516277 -1.587771031483613 0.3216132763719258
H 2.5869817200624796 1.67991654721198 -1.2244910963632056
H 3.969535903929418 1.6191664680638527 -0.14389890175128126
H 2.3786283725483934 2.1014792398479036 0.48476144635645135
H 3.098861269901449 -0.6728935503966554 -0.5977712425058488
H 1.4955484858407941 -0.20192424165719386 -0.07037091695862784
H 0.9325623944734563 -0.9426667299196079 2.0838188784949363
H 2.235994666425238 -1.192388002713403 3.3652357849234873
H 4.464668356570775 -0.7307838777825713 2.9403747383143157
H 4.642647841611037 0.7092126346767633 1.9469562484863547