16

C 1.1420029439215647 -1.2462924752579985 -0.5898874117129136
C 1.7843235208901143 0.052863456393245335 -0.1231827071933013
C 2.6927967864964084 0.6523007267834263 -1.1486869496984902
C 2.525231807899133 1.8113929537439557 -1.8062325503306662
C 1.4028970228466877 2.7747181146006255 -1.6623048017255637
C 3.859243304067402 -0.1164670177694953 -1.4610218530557542
N 4.7841056139305955 -0.7738904350377028 -1.6779185376435577
H 0.5162987065900942 -1.6748871242922319 0.2028390197222476
H 1.89867914573586 -1.9852590050844874 -0.8587931755448
H 0.5143416209327623 -1.0775340134054399 -1.4664321094522557
H 2.372085652207915 -0.1398521924465637 0.787383108577343
H 1.0208453125579025 0.7768237236874241 0.15666602205742455
H 3.2912449224575644 2.0912849303694347 -2.5252769360582583
H 1.7787841656840282 3.751023988621721 -1.340050806011549
H 0.646940997357139 2.4509966202903746 -0.9405218442429332
H 0.9156839006728799 2.9232718469347363 -2.626930528853081