22

C 1.9245500026270734 2.0160479682220758 -1.1769207191855515
C 2.1740844129178 0.6902868794401401 -0.45835463509201585
C 2.728596482995951 -0.4396197784195592 -1.334352850528416
C 1.7097869513267767 -0.9081702414218985 -2.363575572214859
C 4.051479337656339 -0.10085721401285366 -2.0135342187527008
C 5.185399078019946 0.2777603472971181 -1.0743524912263098
N 6.4295867909327225 0.4084559567399283 -1.8142721926911556
H 1.4971019003655874 2.748853063942093 -0.4864815620488668
H 1.2124316721541688 1.8997007297121735 -2.0025464020557613
H 2.838944600756114 2.4361074266384164 -1.5835732837526468
H 1.2344444728753707 0.3481975061156152 -0.004693420982811302
H 2.8560478905659026 0.8708843087946692 0.376754601286921
H 2.9178897671811885 -1.2869521356778204 -0.6514240208445287
H 1.4938303325010645 -0.12227101020185198 -3.0954011657911424
H 0.7604700272735991 -1.18878402501418 -1.8860648493160008
H 2.080203018713495 -1.7727631553034215 -2.9132029927171765
H 3.8919375717217988 0.7019748726522282 -2.738550944542668
H 4.379870320000249 -0.9679338068905039 -2.6003714906275563
H 5.311511341364219 -0.5099370921355817 -0.33425916645679227
H 4.916485756254853 1.187508825528726 -0.5146923812173513
H 6.351981636437751 1.141015015767469 -2.506725215886758
H 7.182574983215608 0.6782944419659886 -1.2005657862373142