22

C 2.93890857927839 0.8888238792819748 1.1535461418035453
C 2.528963587200681 -0.01730773547515209 0.004602853764904079
C 3.0362242187455317 0.39109307262788356 -1.394403174656424
C 2.5655394059817875 -0.6738903447273864 -2.391989398874265
C 2.4701935023171675 1.7420749510931501 -1.8069734953368037
C 4.56819145988816 0.47722916606610255 -1.4252552153113116
N 5.210724511853917 -0.7551570802252754 -1.0011783377272072
H 2.53715454703182 0.5137279617683639 2.098952731511652
H 2.5658926570418954 1.906989867912366 1.0339412105972163
H 4.0294641905696125 0.9530067563083886 1.2615820556533792
H 1.4406204568026697 -0.06685412859915543 -0.0397089528044876
H 2.864853392443954 -1.0381596081336126 0.2046834336019432
H 1.4728868595929476 -0.7802327846510827 -2.3662538349975817
H 3.0201931911676327 -1.635392984931436 -2.167285245409124
H 2.845626783810196 -0.3973641817054365 -3.4145084024839636
H 1.3786121720432236 1.7382112624865766 -1.7939615081865137
H 2.787181146198714 2.0080175445073345 -2.8172006598689783
H 2.804157407153037 2.544615469685864 -1.1394354425645532
H 4.877256663467302 1.3564190275984211 -0.8441052898614534
H 4.869624087238462 0.671574462236203 -2.4569640725781596
H 5.175983383545236 -0.8577528890195855 0.006540382739957154
H 6.188064880044099 -0.7482961999379292 -1.2592063846931825