22

C 3.2237343296474497 0.6212470221886616 -1.2013672171850427
C 2.7523889403768846 -0.24063758977151642 -0.0417708776412529
C 3.2961095499096635 0.1575338068222859 1.3207975606264741
C 2.562973942544815 -0.6056399297920941 2.413982446320474
C 4.828249836703917 -0.00735440019695358 1.4194320490488694
C 5.407046720590308 0.6619087223304986 2.663932412928662
N 5.193621502241764 -1.4113341315953152 1.2814974471173561
H 2.7205567200026395 0.3353997221061004 -2.1342498559889487
H 4.299813221858388 0.5185438510199716 -1.3846109694566533
H 3.0163467029015205 1.6739995944201702 -1.0275585222242343
H 3.024876646352377 -1.2851986460983966 -0.23055130464136822
H 1.6585243475490499 -0.2000228887171623 0.000978257138588035
H 3.0945828643010427 1.2223504877761606 1.4622919756493937
H 2.6753804552767617 -1.69218234996465 2.2845162982090423
H 1.49263037581515 -0.390037933217237 2.3775815557936046
H 2.9067719465321793 -0.345521741610737 3.421861296437325
H 5.2476099586989085 0.5041326865659567 0.5432034882916033
H 5.071315459571884 0.16744842008664734 3.572040956902013
H 5.126997917298352 1.7101593356866331 2.7228670974177334
H 6.496137708700951 0.6005090265822428 2.645997888741206
H 4.958011475616367 -1.9180578046811503 2.121163126695891
H 6.192986003491249 -1.5057171720398597 1.155714047617479