18

C 3.2714089523437524 -0.6659379325701377 0.9299317775330572
C 2.7181753658313865 0.5092024755234605 0.14224410504646134
C 3.170951113912085 0.565672662803959 -1.3140677775928038
C 2.4807697312015398 1.695867440245738 -2.0656462126515924
C 4.701675699374947 0.678907917751052 -1.4508412951034229
C 5.237808215093761 1.8734552198134617 -0.8232750464886252
N 5.650941904732197 2.8190793258855593 -0.3092775729097174
H 2.832418045395983 -0.6974755376653916 1.9325911834626759
H 4.3570063529587895 -0.6001507101546378 1.063142898482671
H 3.0521658646473857 -1.616012386127756 0.44371460933217066
H 2.988271249294084 1.4503601518794094 0.6306966694186878
H 1.6270398147988283 0.46504528894692937 0.14704267155861778
H 2.904212772816475 -0.38311627399479947 -1.8007719139693459
H 2.7380515706648376 2.6699907516923114 -1.636141610139048
H 1.3970618125160013 1.5824479104670683 -2.0053778445787116
H 2.753262074331442 1.7072883257970157 -3.120894487556671
H 4.975426153775402 0.7032239702963687 -2.5121200875875225
H 5.199887404617071 -0.18958147260419841 -1.0168913964823636