18

C 2.9581376786208593 -1.2953084467161446 -0.585445224272884
C 2.5417493145947696 0.015020287415507703 0.0377142905123352
C 3.0667651597412253 1.2513337522584893 -0.6965677525544328
C 2.547228785502662 2.5640418370452736 -0.09765037483589403
C 2.9657184652406774 3.8068455974793247 -0.8561651149660477
C 4.526131187491389 1.2544358752644602 -0.7264518109350643
N 5.6784421392281015 1.2495064606996598 -0.7300290428048598
H 2.5545477770695584 -2.1422685397693075 -0.02248328200062867
H 4.054112113924228 -1.4046497658427375 -0.6034883736201788
H 2.605929094743933 -1.381993670188367 -1.6176402016885787
H 2.8782905736463844 0.062081193387326636 1.075906520566673
H 1.4513742481115535 0.09093623705430817 0.058445643504091434
H 2.743155722573284 1.1989860025475474 -1.7480976041428096
H 2.8794087617865243 2.621733111313918 0.9452319622554948
H 1.4533226439523919 2.4917882500546633 -0.0708918290365198
H 4.055211573888431 3.9074628148733037 -0.889007802230797
H 2.560934056510418 4.703142466496545 -0.3951040868975409
H 2.6123216854468967 3.7761028432176436 -1.893294984550343