18

C 0.9104684788248569 0.047177177794995646 0.1454305689249822
C 2.4373317660235014 0.09885494058185032 0.05501552293302902
C 2.956006228094123 -0.5607088531648383 -1.1278528501140037
C 3.3771602510702263 -1.1185305325244779 -2.1137418998274726
C 3.8436673215699115 -1.7866226724837322 -3.3242443002007867
C 2.729681094320756 -1.9511696805480772 -4.371687458577536
N 3.1384101450786357 -2.602956272686452 -5.600559167054434
H 0.5688372893427912 0.5586628700747648 1.0458976408094687
H 0.5617273048866989 -0.9798310819286633 0.18275872030437762
H 0.4508322359808144 0.5322202316038435 -0.721718309896671
H 2.8801871003916517 -0.3588269598885017 0.9481517570551312
H 2.7724406469820524 1.1472819675433028 0.047104125930805235
H 4.672155584543963 -1.2208048486175314 -3.755472644745295
H 4.235780477511547 -2.772573423157671 -3.0650143319681145
H 2.3426605370774345 -0.9550095017093662 -4.622865722443838
H 1.9078560809997624 -2.5075467771992193 -3.933035825969944
H 3.881369243450049 -2.100748371229503 -6.058050039189849
H 3.475581693402187 -3.543924071376184 -5.412673963816919