22

C 1.1730101477595645 1.987029451104961 -1.520728105763361
C 2.694168360698555 1.8821583323600681 -1.5606277843376777
C 3.274260625708732 1.3932357981250736 -0.24193190378579343
C 4.813002986390055 1.3219050717825758 -0.151375268743659
C 5.185427512095154 0.8380935156345853 1.238991912207272
C 5.384441393097276 0.3669569460052911 -1.1909942659759185
N 5.458239581215929 2.625680295239244 -0.3410284030193684
H 0.7768982846653048 2.3449797123846716 -2.473795735073643
H 0.8509765894695716 2.687034554170222 -0.7392108893438151
H 0.7193846868242172 1.0170786750677578 -1.3023248691433316
H 3.1133078291367604 2.8611972794157663 -1.8038187001505126
H 2.985116622639734 1.2121112651250103 -2.376598967195543
H 2.860619120461312 0.39620043656197956 -0.023924868573686794
H 2.921588660311379 2.043056852968283 0.5660236380148677
H 4.76348790071751 -0.155661036665355 1.4364260389619405
H 4.8038108133139295 1.5237613877514053 2.013977065748003
H 6.272096760390883 0.7804577884563262 1.3488580249035615
H 4.935983291189035 -0.6168957641042905 -1.1064813251448
H 6.457830924279525 0.2813275600073765 -1.0599234448052255
H 5.2048535467408295 0.7349949751597779 -2.2133490230458603
H 5.099151962645814 3.298150736956349 0.319008186874628
H 5.267176633545659 2.98892106596665 -1.262175344228207