14

C 0.8745774520777491 -0.02695540849774982 0.010912004150482239
C 2.3857062604808883 -0.04684032763956424 0.014706858132290458
C 2.9689613497590543 0.9993028782307164 -0.9337902481542536
C 4.4198474832239585 1.0128714305802737 -0.9589344109582071
C 5.623091539962079 0.9997348765118979 -0.9594008761248479
C 6.9959593304146175 0.9817555771599358 -0.9666667255656565
N 8.148031528215101 0.9755546702908061 -0.9637177407619053
H 0.47493926404274384 -0.7863252078861052 0.6884919644745938
H 0.47603478494378254 -0.23223081285777716 -0.9899685695715715
H 0.4916262838644439 0.9441368521911244 0.3223061643184729
H 2.7599605369851785 -1.030288117046873 -0.28638390257982543
H 2.7748817589632693 0.1356465083776308 1.0159060826389068
H 2.6261982984157566 2.0028702575695907 -0.6549983906926778
H 2.61081112367044 0.8250042029799378 -1.9581174736369609