20

C 2.269481700116945 -1.4984533893029128 -0.36535670874482257
C 2.1005049138322707 -0.018183028414687566 -0.051961930392895456
C 2.7440836448303996 0.8975492377254654 -1.0606888309658118
C 2.0436253080226394 1.7471507602881609 -1.7941230828390262
C 4.239231339453209 0.7739495002582178 -1.1817003971679383
N 4.854644224054426 1.8386572041911302 -1.9247530674613869
C 6.296523731891888 1.6995836816825018 -2.027655009311979
H 1.7447338448149308 -2.1097472455656687 0.37535080506309726
H 3.3194713144545385 -1.800808848366176 -0.3518665397693511
H 1.8632540264667212 -1.7434787718600817 -1.3554093701412429
H 2.517885372023233 0.18978163685530622 0.935547313388392
H 1.0338059377796776 0.23025171749469978 0.005665031895697
H 0.9631679362176931 1.822213491845234 -1.687679017025007
H 2.5124809176230603 2.380904885631476 -2.5308779922005162
H 4.483426032920226 -0.1753846265358123 -1.6720821808579718
H 4.660827166711397 0.6729157066973257 -0.15502845231450157
H 4.616455713153652 2.729049177137112 -1.512128674328045
H 6.537496878197521 0.8079892517142702 -2.6105938895257554
H 6.804392622532093 1.6005720681848912 -1.0496012019351273
H 6.706792466939476 2.5633447338972575 -2.544593657549139