22

C 1.2884033661986767 -0.6220599906248406 -0.10539877146575177
C 2.5923723056244996 0.030049620864375026 0.3234044519065259
C 3.01491425831594 1.2299981590632234 -0.5230521719785305
C 2.0936417054374457 2.428683060374823 -0.3206693449274483
C 4.452363713042579 1.6267454104598964 -0.2359765748355197
N 5.395834052370703 0.5918156251260983 -0.5963991942492862
C 6.7688259480908926 0.9477223927398857 -0.3050388003578603
H 1.0573729718527225 -1.4834342570659698 0.5150307488355532
H 1.3408000368104593 -0.9552979081239554 -1.1450790109822016
H 0.43429791072521845 0.06347351233517845 -0.02677742185437914
H 3.4014866412468256 -0.7110321849914297 0.2898774323121026
H 2.51588579112166 0.35471804855641487 1.3730731106149074
H 2.959647997678619 0.9355141643124852 -1.5746488730815036
H 2.1254359816638178 2.773122455033361 0.7152468775182191
H 1.0540761307611688 2.182912936102032 -0.556174200883632
H 2.389716539517489 3.2684126373266826 -0.9614527466437284
H 4.564501708334441 1.8176502442411517 0.85005050011485
H 4.6763250024745835 2.5904311413021235 -0.729804715431671
H 5.30464984946936 0.39154933218719196 -1.5849789940021846
H 6.900831200215029 1.0152884171072103 0.7809044067110571
H 7.097976421753754 1.9055742854280358 -0.743800092277033
H 7.441029590815685 0.15608707295837776 -0.6637730382670958