22

C -0.07184416659274058 0.31789761752642026 -0.26491504200413735
C 1.4299300234968269 0.4050475822656984 -0.0556947856768066
C 1.993787208755082 1.771871479845764 0.382188952659175
C 1.3365057512121419 2.2181458486052166 1.6971198583380622
C 1.761405893674022 2.8098202876845297 -0.7011089947054904
N 3.433036265736824 1.5494559485259742 0.5286057846667669
C 4.2524829626340575 2.671864025366201 0.9362163012624988
H -0.3457130068161821 -0.6975834852803517 -0.5939921778434596
H -0.41686212226680164 1.0079847678051148 -1.0452352848116067
H -0.6315567670132045 0.5313427273464072 0.6408949236383169
H 1.9589839765184982 0.12114225642775898 -0.9657859443837958
H 1.7190058884986932 -0.32657256894711034 0.7069733072585473
H 1.4618498367029424 1.4616992891282308 2.4680891697137723
H 0.26683736067095837 2.404557005618928 1.559551772514346
H 1.7721005098149316 3.153775622927219 2.05738198603914
H 0.6937942710526376 2.9334753819382855 -0.8986007089005346
H 2.2533899649539353 2.51698264660266 -1.623140964116771
H 2.1358036174790023 3.7887322015028393 -0.40821730514231264
H 3.5878264971473333 0.7784680078133779 1.1644339757073259
H 4.280090331030246 3.4342045680944433 0.1489321821046495
H 5.281113429290334 2.322747909487377 1.0650810658420193
H 3.9505593646701715 3.164827097160909 1.8665055738736127