22

C 1.5116132045273172 1.4475562296292739 0.2270569939390617
C 1.4958348238045946 -0.00981085753598402 0.6470487624423812
C 2.0714891533685518 -0.9749779729723139 -0.38568629744833766
C 2.2876946980571984 -2.3613078244082484 0.226358208274795
C 2.8555293300651257 -3.384190754452401 -0.7270510278866857
N 1.216021769352668 -1.0429842211040226 -1.565157025159933
C 1.8752113954481235 -0.8468613888380458 -2.830446281063395
H 1.0739147153993946 2.0810153100354563 1.0040027244737129
H 0.9546315324755302 1.6120059224685044 -0.6898478552734335
H 2.5379748671737525 1.7909399078540396 0.05599118884544
H 0.47906992441626023 -0.334643250553253 0.8810584196624277
H 2.0646792184076554 -0.12749755259192078 1.5822965645617992
H 3.0590634825515077 -0.5806949034473665 -0.6878063803972765
H 2.939532630323048 -2.2570758656078214 1.0969851818731702
H 1.3137547411366592 -2.7143103030517723 0.6006890757963314
H 2.191696621316392 -3.534390855270132 -1.5861921009805857
H 3.834665426107295 -3.0701818835052013 -1.1160949664147957
H 2.98717049425243 -4.355583340208177 -0.2393362051943281
H 0.4589758427201534 -0.38558061226088647 -1.4752423875810965
H 2.5855316269734785 -1.6616508820596525 -3.0237347123873612
H 2.441179934034968 0.10439181344665234 -2.8977012809630245
H 1.145740036144755 -0.8581565012511325 -3.6367637292254553