17

C 1.0208898334884866 -0.3108713851860953 -0.1342334951953936
C 2.495537384956075 -0.07086595173253547 -0.1259831325299924
C 3.1691277250671783 0.9561080392656219 -0.6607903665788584
C 2.5555709251985776 2.1057738616034363 -1.4079753895204596
C 4.619894743427204 0.9639384138113775 -0.5219268643308792
N 5.328450642613352 1.9032562728257636 -1.013750820433804
N 6.673622937854902 1.8794020203370279 -0.7702103305805773
H 0.6425437431991479 -0.381013417688416 0.8860803006987054
H 0.7910573167290244 -1.2709640409770009 -0.605727905039917
H 0.47085555178359073 0.4644602245876582 -0.6520249959085771
H 3.0875009320454425 -0.8301372626762888 0.38408250680225037
H 1.4693973017078712 2.0201415705033376 -1.4607078941196718
H 2.9578439237341723 2.156908974827269 -2.4136311082136643
H 2.813127872517942 3.0512341744929294 -0.9211246129784837
H 5.072653533449712 0.1315336701118585 0.032207728311738376
H 7.168643566438512 2.3741219232727313 -1.4904130730772165
H 7.066399864773697 0.9496924900627115 -0.5957982133636831