17

C 0.8894493481977652 0.34701266075775866 -0.8144109067057317
C 2.3839652841997645 0.37042715388148584 -0.8440942099810356
C 3.158306890208583 -0.6902740647228137 -1.0037751730530702
C 4.660964083262953 -0.6705443898342541 -1.0365275786574053
C 5.198484849681198 -1.1194263615143352 -2.35134796643933
N 5.942044316470484 -2.153790212074243 -2.4336602467468444
N 6.4579999051657815 -2.4797207227858253 -3.653552859417562
H 0.5151374573888531 0.7355251684126943 0.13321079476452863
H 0.5034230525368634 -0.6608250587294158 -0.9548041437217792
H 0.4760751078715697 0.9814325447731167 -1.6061755148080337
H 2.851850899819436 1.347395685231962 -0.7241490141478657
H 2.6999748236769765 -1.6742793428568623 -1.1272417752273851
H 5.07342612901792 -1.3186965417068357 -0.26271017948763736
H 5.008778890526259 0.34909460742885906 -0.8309475598137053
H 4.92479783823321 -0.540372101034797 -3.2362856111655534
H 6.649346112469666 -3.469429025970327 -3.6923537199105634
H 5.913834740021053 -2.1660467816135816 -4.44984523178885