17

C 0.7515307711509617 -1.5270156233075585 0.8722507074042956
C 2.2154337590599837 -1.2620743502219278 0.7594734053214014
C 3.0069530627833636 -1.7559190694726177 -0.18473288833727355
C 4.472506399334983 -1.4774036305993183 -0.2926122270539441
C 5.339559120791016 -2.7235331924210446 -0.11760956965588414
N 5.059231699684233 -3.4373530240131798 1.0060133718776467
N 6.289687103190788 -3.078088319009907 -0.8888093511877302
H 0.4982631083618132 -1.9627089539630242 1.8444509739002237
H 0.4072155927822364 -2.199493922497204 0.08366709484267125
H 0.17596277647939476 -0.5953111946745664 0.799918987309925
H 2.6432293293563847 -0.5944493669126326 1.4998562148521635
H 2.5856166653078088 -2.4215107927088537 -0.9325610361589461
H 4.769542854283151 -0.7509920609455109 0.47334292672027495
H 4.711982452364068 -1.0418241251069853 -1.2675500802998219
H 4.133253476908176 -3.36104476887326 1.385465533110767
H 5.5015839642522275 -4.337291463549155 1.0809416455414464
H 6.400352542605589 -2.409923695789779 -1.6456923682294549