17

C 2.5473797924026607 1.5534172731068698 0.6990286257205408
C 2.5658817091590116 0.09501769103385992 0.35526216894605317
C 1.9076430703057 -0.8192634880983768 1.0542133049228684
C 3.400250872382028 -0.28351405759414106 -0.8504280844938144
C 4.859169844547889 -0.09408865531719747 -0.6031416586686237
N 5.533759828534673 0.7514779351822637 -1.2639939487472804
N 6.841087509990919 0.9422217451261775 -0.9429858511980865
H 1.9574868481359347 1.7374493026913884 1.601006958592857
H 2.114278199565219 2.1380871487253974 -0.12111049968428132
H 3.5562569238914756 1.9305169314016777 0.8453790149541106
H 1.3154706390286501 -0.5520408047298296 1.9209710581173194
H 1.9261293657323189 -1.8670466213267964 0.777543607175412
H 3.122794781460612 0.33306930686231606 -1.7103875941717293
H 3.1988618714914154 -1.3313048792008602 -1.0989608106516506
H 5.3217262167059385 -0.7046122320149114 0.1815390140850036
H 7.355423985617062 1.2736710423147426 -1.7403373153250223
H 7.298189745128131 0.14017446165041053 -0.5084741968935574