17

C 3.8931701259162286 1.7678514613237315 -1.0468361711013145
C 3.4491407819735045 0.3373813126403973 -0.9827334239341456
C 2.955911599210107 -0.31169487905010285 -2.0373101404941356
C 3.5891629799257037 -0.3334263636451516 0.3609056479467122
C 5.042033966645824 -0.5109893058332869 0.7728182331401879
N 5.797686358395616 -1.1789288346884617 -0.13952647939901477
N 5.550436838947579 -0.14632839986527035 1.8817532312394185
H 3.808223406685278 2.1711076617668614 -2.0557365498843527
H 4.931196052869468 1.8693808043073588 -0.7109741218494927
H 3.2892292482996344 2.386330728702396 -0.37648965406099744
H 2.866052250095802 0.16677516392536873 -2.996185640785819
H 2.6256686531278186 -1.3371710818385794 -1.9587169890924438
H 3.1139053005834834 -1.3118364259170117 0.32882104349310093
H 3.0892892902623776 0.25997226144403496 1.1316195197051717
H 5.4944655927542705 -1.1723550085186243 -1.099098254044469
H 6.79113342229179 -1.1939862400191337 0.02180876867512433
H 4.847586499235525 0.28496347028258945 2.477767689906792