19

C 1.072122348159589 -0.029403735457619234 -0.07329572624299717
C 2.6072029531160763 0.06490993615902078 -0.004913126931349975
C 3.024176360583179 0.6947844347681464 1.317907051801171
C 3.194755082199298 -1.3524487715978537 -0.112997626371872
C 3.0835531297381498 0.8728275155913062 -1.1723064747523249
N 3.7554603993185984 1.9411058458220436 -1.0465696184111424
N 4.15178176223715 2.608302708989661 -2.1271639646004954
H 0.6916865959930819 -0.6675675823906961 0.7329305763351607
H 0.7467286827753876 -0.4516600380348529 -1.0201804106483663
H 0.6208153327426279 0.9565857441214541 0.029618771758811797
H 2.668092811664618 0.08334314353181896 2.153954044467552
H 2.6175320966846924 1.6952064359013932 1.4137400037259853
H 4.109755981478898 0.7662550546502324 1.3905174296780798
H 2.8127486962543964 -1.9924646548047398 0.6852645237113676
H 4.283794643855095 -1.328523806837859 -0.050485972560999015
H 2.924986462913456 -1.8110288461751727 -1.0678254528727005
H 2.824124192940332 0.4870752053636982 -2.17156492781967
H 4.680659051034532 3.443024048123039 -1.9796369144222121
H 3.9359118050055533 2.289917049341459 -3.0671307519434787