15

C 1.150671076782369 -0.29525066644396225 0.030146061861809657
C 2.6427438926291176 0.07931252521904078 -0.06190273029451125
C 2.973447171989719 0.5647933490135026 -1.3929135082030877
C 3.217341013891797 0.9619093162214969 -2.4936107460396157
C 3.0124614832267023 1.1009322166305013 1.0147628664303698
N 3.0529027511918883 0.5742228606530384 2.2809315311335916
N 3.2982432529000576 2.3213148170688926 0.8311418516343071
H 0.9066199950955621 -1.02605580600039 -0.7444816736719002
H 0.5339590297566003 0.5910378184044613 -0.12179840587713021
H 0.9023778009310024 -0.7216260922852293 0.9953508929801884
H 3.240933213019672 -0.8226325509885823 0.1344841423181417
H 3.4429702049456097 1.305954910907286 -3.474615111580365
H 2.5192032104682927 -0.25156669451306984 2.4751324156782313
H 3.105515261064725 1.2458576114605604 3.0241446042023177
H 3.305064891569594 2.5430724032495315 -0.15959995152843331