17

C 1.2517586868665036 0.04254605820785674 0.3642308742924675
C 2.450706856782893 -0.28580793033842056 -0.45820646266975146
C 3.7742442268358296 0.25864725932313315 -0.00028910532994667415
C 4.474435280380148 -0.6718822173992063 0.9488076510563562
C 4.785542535488084 -0.3746219325455359 2.1952402597391307
N 2.2860761028142496 -1.0098046639487688 -1.4932321087986709
N 3.357819010556455 -1.291560163162325 -2.288928549314172
H 1.389621343097354 -0.27460738449883876 1.4045142041271874
H 0.3648331734014509 -0.4475741482143969 -0.03829341587421601
H 1.0754708374086444 1.1296639115973917 0.38323911451970444
H 3.622802858853327 1.2238911892643143 0.48785032148433977
H 4.41444955904584 0.4489533896484007 -0.8742263058913659
H 4.692413914700676 -1.665173428084235 0.5658851144485455
H 4.5799265137684895 0.5996774294990496 2.6211320410275136
H 5.278676687761667 -1.102876835296494 2.8465630039998735
H 3.13094729079511 -2.0854681937695982 -2.875297301686183
H 4.2373773010701274 -1.4476875716308162 -1.8077566721097826