15

C 0.9621686420991629 -0.03884402103739826 -0.03567806175707397
C 2.4052769411354182 -0.07020052066273665 -0.049203875597158074
C 3.6106340325183015 -0.09214498902950793 -0.06334417053791881
C 5.066366598025638 -0.13571934358882953 -0.09097284640165385
C 5.593066467012969 -0.9901170446218894 -1.2074750621912351
N 6.4540720836175005 -0.5300683622318804 -2.0180440974467184
N 6.966051160304808 -1.3572749375794513 -2.9648546305870913
H 0.558842462958532 0.3762519790475578 -0.9700483326432967
H 0.5935402355365842 0.583837290167768 0.7861477569554811
H 0.5405515251008234 -1.0352951299927624 0.08817818012066078
H 5.428487701990643 -0.5134109895742504 0.867866336875343
H 5.478463487342091 0.867489595478184 -0.20997754521444004
H 5.221603680419169 -2.01495286021573 -1.2816825433049714
H 7.273369722963704 -0.8300481795303837 -3.764902196149095
H 6.376232205097535 -2.136606851386792 -3.222038770538948