17

C 1.9101108810153853 0.4739357141381735 0.6323304236644075
C 3.328089981458762 0.08755895906855739 0.24194636615985118
C 3.3746437952690513 -1.073599013196847 -0.6893282611176762
C 4.007577464475763 -2.2203108204513575 -0.46205955010873123
C 4.086219060145468 -3.36606845424164 -1.3828212530608501
N 3.171501129741405 -3.390022823646174 -2.4082690061490006
N 4.9654050768178575 -4.293536012236526 -1.3049500725612437
H 1.9079936269828022 1.3493523489180068 1.2822420030528439
H 1.4173719092501516 -0.34789603799368685 1.1661467515626989
H 1.3041832093856311 0.714384741195254 -0.2484827098362851
H 3.9268019573060666 -0.13851682669377607 1.1258196800749072
H 3.8006988132366377 0.9434828340844926 -0.24572060545031799
H 2.8320761841679825 -0.9526706046116311 -1.6322365227237243
H 4.573226384065766 -2.342232673812621 0.4641383189376168
H 2.249627628857705 -3.0371490808734793 -2.2126848229087415
H 3.172729185366557 -4.260892944866627 -2.9253409925263183
H 5.608488927889756 -4.09608161972337 -0.5434512866245592