17

C 2.5439638800985254 1.485055656628027 -0.420273559912845
C 2.576479744351404 0.045927533282734474 0.08009043430377903
C 3.0350021970972216 -0.08080567946510123 1.5041937147978541
C 2.195449611910194 -0.3053913936445481 2.5111392616280743
C 4.45094816709619 0.07849509787391402 1.784687900249811
N 5.316927217063933 0.24100110115324644 0.859487827292415
N 6.6098314343010385 0.432792970883509 1.1965955972553894
H 2.195457075666446 1.525344803391647 -1.4537495039649109
H 3.5369757368866184 1.9281549031761198 -0.38197373641086807
H 1.8680721403532639 2.0907303606655208 0.19217630570968464
H 3.2399544787744774 -0.535808816710872 -0.5599937020496893
H 1.5761460455596685 -0.3962945011445024 0.0023611117760558896
H 1.127267146740358 -0.44163180749674597 2.343309162430821
H 2.53891716881484 -0.3694923898937946 3.5362068191415466
H 4.757604552371668 0.03525316658600207 2.8420243026543566
H 7.225573844837604 0.16169564832429753 0.45871280565258205
H 6.885322895561414 0.05617175292461545 2.1006396070688282