17

C 2.0441342102682762 1.1213429124244456 -1.049196570778265
C 2.4676692034881107 0.22329705022686272 0.10842537403377621
C 3.052410974584087 0.9773315592621773 1.2747165821084065
C 2.205156114431824 1.8315696682254792 2.104394596278437
C 0.8788922065955245 1.7591765506483448 2.190938479939013
N 4.312121345313446 0.8494259718628931 1.455819024984569
N 4.90923510656445 1.5046611507647867 2.4874424427322714
H 1.6183948526452696 0.5312809104797453 -1.8576157907215216
H 2.899431101969843 1.6698326238579928 -1.4415206038481962
H 1.297876969601858 1.8576614499584085 -0.7304613872487021
H 3.214807281100409 -0.49006952154304684 -0.22369889533392864
H 1.5997530540625564 -0.3636074700913509 0.45080922393954787
H 2.7123326929999036 2.6252620843357133 2.6524399822726226
H 0.30500286877956156 1.0019565891322237 1.671092909706433
H 0.3152742014459166 2.4516256976829847 2.8114499378999116
H 5.8251984775922665 1.1103988904013684 2.656997635825756
H 4.37784245012083 1.5871758664216282 3.3441949842192287