19

C 3.4952768111271064 0.6334778951281299 1.1198146011738082
C 2.9221407056873705 0.2704861443392956 -0.23829864798565334
C 3.3894654530388193 -1.0811319474116354 -0.7685643130117384
C 2.6890516598031673 -1.4456009275787338 -2.0697156069195994
C 4.889712448410753 -1.124933091187876 -0.9592946958861577
N 5.508278283010131 -2.205789342264404 -0.3885374830520767
N 5.57912153985635 -0.2996716164035857 -1.6380848474531318
H 3.125819695887055 1.6050241297624654 1.461935353496777
H 4.588270930698422 0.689200729369859 1.0795445835737891
H 3.2196321591796173 -0.10667659056946661 1.8752120860308934
H 3.1844559372789 1.046263819874106 -0.9670080913861828
H 1.8302498475317972 0.2590193418782289 -0.1853374041973191
H 3.1237291251239094 -1.8340260524433067 -0.017977980543970606
H 2.898637301908274 -0.702457934836842 -2.8422556757487114
H 1.5970577923792375 -1.474627551381598 -1.930479588145543
H 3.009357531626638 -2.4246844717330376 -2.4374922478360848
H 5.085520605299375 -2.6418066858185822 0.4068774322483514
H 6.520464465764082 -2.191528799660881 -0.40581961486375895
H 4.990651498091461 0.4101629991642886 -2.0611684839905307