19

C 0.9595884275010873 0.1407019570489503 0.14872631890344973
C 2.465467299235926 0.06761140531988602 0.08042059451386412
C 2.9617980954276164 -1.032392372986315 -0.8505900826068061
C 4.489853813532467 -1.140193790075267 -0.9199778901480842
C 5.111237068141807 -1.5709647058124423 0.36617042751861834
N 5.946403722807527 -0.8515093832559648 0.9800095831988979
N 6.4219143198736 -1.2771502928992962 2.1812049605751653
H 0.6226182796963114 0.9416535121215255 0.8055235781273737
H 0.5251399619615066 -0.7945160376345615 0.5162456094154365
H 0.5242720612711398 0.3350789302283184 -0.8462465549516625
H 2.874518815576751 -0.08620690531029565 1.080690483863923
H 2.881246944464602 1.0278315543500482 -0.25782050638419146
H 2.568165884162957 -0.8703897784047453 -1.852944102427448
H 2.552759232010696 -2.0025169920769375 -0.5166505598562574
H 4.920495190371429 -0.17965830776969965 -1.199702567317157
H 4.752104994457219 -1.855618367146152 -1.7064143236297737
H 4.80490437423057 -2.549924514638009 0.7710413664428101
H 7.330909382659165 -0.8878719430446602 2.3524728953336305
H 6.416494747045937 -2.285392645059786 2.3028577209022094