18

C 1.5758350917709367 -0.6177741915160695 -1.0185340251008435
C 2.302599444221572 0.13254180627610926 -0.20184037557559262
C 3.1796702557921472 1.2599924642409204 -0.6068173989729719
C 4.6403584725998 1.0330441170181273 -0.22039757420740744
N 5.445951439907307 2.1925161257898784 -0.523620525740979
C 6.861400564851679 1.9520713868472737 -0.6833815513475118
C 6.009009900667575 2.2363762574515995 -1.8633467959608692
H 0.9522725517268639 -1.42531500191685 -0.6613844389612689
H 1.5844640021486354 -0.4360098432527415 -2.0940876422230774
H 2.26335679649905 -0.0824510373596574 0.8676673595493373
H 2.8573365051078072 2.1917629175535374 -0.12286779823807006
H 3.106036752431849 1.4206788197790203 -1.6838353548851077
H 5.013826982277942 0.12440967703042002 -0.7358439816584988
H 4.703062906196028 0.8388734461834644 0.8528107791286592
H 7.214644596345276 0.9273544307740721 -0.5754327357581516
H 7.518313152947509 2.7191989879801644 -0.28376120619184525
H 5.7917103295597805 1.4064776449877876 -2.5268951059724207
H 6.034529310076888 3.2113669845814874 -2.33148462857726