18

C 0.8670589889887196 -0.18859666748525897 0.10235746492690777
C 2.3612848997056646 0.0076837215963304634 -0.09776421663213308
C 3.1027928848198245 -1.2744357324914446 0.12292645140197687
C 3.9667673463516824 -1.4844898460955203 1.1118633380295349
N 2.5957994912503892 0.4634482904068182 -1.4634108429116501
C 2.493865701049466 1.8878148429871486 -1.6789432956643915
C 3.8187903626195854 1.212390465132663 -1.6708899515100928
H 0.6508337175670506 -0.5090362562774056 1.1223336148888727
H 0.4878581362582695 -0.9451657891198042 -0.5936755476932389
H 0.331836014490287 0.7427583417484886 -0.0955451128468802
H 2.724690682723482 0.752678308661591 0.636332635718288
H 2.89893967199064 -2.0594661727093007 -0.5902630967147909
H 4.195322004640513 -0.700243963665089 1.8327473116801394
H 4.470685007820202 -2.437577265722658 1.2362823493754433
H 2.258599069513864 2.5146077034414023 -0.824518247437136
H 2.029718089001984 2.1987319888937553 -2.607768010377536
H 4.455339634353176 1.3915511025587237 -0.8112606656277894
H 4.33886768920583 1.0273481434255385 -2.607945948428439