20

C 0.943775138414361 0.026974112089603226 -0.2636290114040902
C 2.364854693777917 -0.09835619966600152 0.26250104730737317
C 2.409524822524629 0.12488257395730347 1.7672085720383786
C 2.9504702188890963 -1.4484666018273005 -0.11822274703325925
N 4.34590171333269 -1.5691736640386378 0.24142635510002436
C 5.100482946361527 -2.5678333868536836 -0.4692929650209037
C 5.294755577633366 -1.125251500704189 -0.7566389725215807
H 0.5134464981035967 1.0072317093706908 -0.013927819301053981
H 0.29391126648466276 -0.7387346886015171 0.16160630850726768
H 0.9119221434580659 -0.07246033811873455 -1.3524631518520138
H 2.979060277115872 0.6730215757966 -0.2147942012188893
H 1.7675714412627344 -0.6021715436783801 2.2820815361847333
H 2.051234370097148 1.122161312348553 2.0307754423576587
H 3.429442645334531 -0.004672450945318843 2.148434403217288
H 2.8014919405245 -1.619332886530083 -1.2021535161254668
H 2.401449687084504 -2.2459735125228524 0.39784704174255414
H 4.581103172067407 -3.1502728600305923 -1.2182355422609243
H 5.84271069435005 -3.110317485513051 0.12030025882939373
H 4.894388703246309 -0.7595113956151315 -1.6935859220690976
H 6.16653924532614 -0.5966145217108737 -0.38067371598410427