12

C 0.9852932756076418 -0.22074339903261192 0.09835812639108006
C 2.30768975063589 -0.020809549272114477 0.12467615204988115
C 2.99827977073127 0.8634632559400932 -0.8932798106039807
C 3.634386619301124 2.032840966557151 -0.297193617666215
N 4.1261545971430795 2.960458942540591 0.1610481468713206
C 3.1431414175471946 -0.6273498020574657 1.098794011778547
C 3.8921994373941153 -1.1312024011678037 1.8974896862976522
H 0.36781050436572155 0.2677443154335099 -0.6518287786016472
H 0.5062282338404182 -0.8685759914724196 0.8190254298105555
H 2.2687594671687368 1.2081699335671827 -1.6337671821412416
H 3.765213372154342 0.28671330367704323 -1.4159963538851057
H 4.543846120327652 -1.564655474036507 2.608684741626796