18

C 0.9742702397651722 0.4429452039617121 0.2911001074462083
C 2.3809875800308036 -0.028682926246185708 0.2673581492023927
C 2.9051201863334097 -1.0838779615679663 -0.36345286551462513
C 2.118565772009933 -1.9784191770494797 -1.2855695351691114
N 2.562065502918789 -1.8054484261720114 -2.6632893117657885
C 4.331936440751141 -1.4119666883360835 -0.2641590191972342
C 5.088344810520737 -1.2708807053900262 0.8178019905752787
H 0.9158343601194981 1.4965047400518137 -0.027788258992317932
H 0.5619673163815391 0.4094566017494206 1.3078552038453042
H 0.31222411311180126 -0.13439266044773585 -0.35636361030909136
H 3.077905649214279 0.5842175063077522 0.8476750315174661
H 1.0461678563204084 -1.8201325416279786 -1.1349490374866869
H 2.3220958383070256 -3.020717814845657 -1.0006435051010485
H 2.3252148273645195 -0.8791727899471382 -2.9889052449456974
H 2.1172793029855637 -2.4703288728404234 -3.268867568477877
H 4.761638209193182 -1.8430843082050605 -1.1653340025815684
H 4.690797418898187 -0.902211612045616 1.7529352958376008
H 6.138830304319572 -1.545086581036848 0.8050757797423785