18

C 0.8111410439384003 -1.3644645368384045 -0.11205235240439648
C 2.1187417401415365 -0.8750401365324868 -0.6535808899805435
C 3.2953230874237365 -1.4511080665966514 -0.4489244240678031
C 4.610049308881774 -0.9453654712860302 -0.9840575437113936
N 5.54261165051809 -0.5554067893731535 0.07500893318827974
C 5.221427938805728 -1.9460001881127655 -1.9050557547898939
C 6.473234321785996 -2.3808230389695266 -1.8643822297465895
H 0.3287659340392134 -0.6043840523349764 0.501714404494992
H 0.9394434782264351 -2.262790950844432 0.48480544712911533
H 0.11748021948895176 -1.588707490314691 -0.9309841804472654
H 2.0793835486658536 0.02605621039358109 -1.266052480613928
H 3.3497809604832947 -2.3603003316232116 0.15910863664753064
H 4.393787387851348 -0.03616770572679794 -1.5756832881681277
H 5.769104253310219 -1.3596157380721743 0.6337769603978198
H 5.088178733565158 0.11321895730362674 0.6818235632904053
H 4.538037880009208 -2.343109045240818 -2.662131555756245
H 7.1753012341589955 -1.9874332835559088 -1.1382116016492492
H 6.840239130773485 -3.108456250943226 -2.575956107467356