20

C 1.1220421420654965 -0.18996622730458787 0.0991826911066793
C 2.646436995046549 -0.10967352182716021 0.01775755952405679
C 3.2205684040050375 -1.5001468517674144 -0.1863769901787293
C 3.0502186098952015 0.8117637252899265 -1.1532827094132918
N 2.5863179765386053 0.308828582674771 -2.4358575778962175
C 3.147695114372508 0.5508493433130511 1.2809034085863216
C 4.015018768180194 0.06501911303453145 2.1494956462428707
H 0.7186643129072742 -0.5335992850325979 -0.8572285553766862
H 0.6825574726984287 0.7935805715925082 0.3007488036625968
H 0.804716474077076 -0.871976647849592 0.8844793742756634
H 2.794046372738102 -1.9531901001068026 -1.0808485302613882
H 2.9817716955747824 -2.1499689367207626 0.6618013990331201
H 4.315491285894593 -1.4743926005627819 -0.2892461804654226
H 4.146846901859792 0.9439517735991544 -1.109969198292122
H 2.603777174207722 1.7941786246981604 -0.9886710226343062
H 3.189085318193886 -0.42039616154975434 -2.784365248764713
H 2.5898710394068494 1.0478973559177331 -3.1263759760390624
H 2.7296522946431856 1.5395185994790201 1.4609655781247923
H 4.468280750969227 -0.9187881086562432 2.0328738125536883
H 4.3039076972645445 0.6239548666182787 3.0267241068312334