18

C 1.0543257994733222 0.03699640849498977 -0.057847727066487484
C 2.5853732854485085 -0.003823444801753834 -0.07195652731602988
C 3.080788569366508 -1.440690093683514 0.11345383339815615
C 3.076424415386163 0.5711666667838888 -1.4118767036850657
N 4.517782619946291 0.5957331890545342 -1.4890119353587101
C 3.0958316482495603 0.839725637196299 1.004635868078787
C 3.5237771804874836 1.5417021200835883 1.8880105905469695
H 0.6539242196862779 -0.5719272747648201 -0.8674609903718603
H 0.6846323734666865 1.0570597898870953 -0.17188310050840203
H 0.669031236942945 -0.3555585954855814 0.8915664378803081
H 2.6518235762312914 -2.075816920019054 -0.6604051042920607
H 2.7650544259240726 -1.8279073113574362 1.0868681247578926
H 4.160846796412234 -1.479302159149555 0.04111204993244649
H 2.6038180755172387 1.546626291918888 -1.5583670598363686
H 2.702324888901106 -0.08708015979466381 -2.208422057437812
H 4.885978329220207 1.2618355279659275 -0.8172624813120023
H 4.824931684490873 0.8953385264623693 -2.408212984254166
H 3.9044956158208506 2.1612046625625245 2.675448137620002