20

C 1.1160593773253955 -0.7221014950082005 -0.1258953375800064
C 2.5168183912916056 -0.1458296360079846 -0.21551207200072983
C 3.0303753547490113 -0.18353290834562255 -1.6484973071457505
C 2.6191024474885496 1.277278611532968 0.3791355729582062
N 1.8046566739720866 2.2902182093915964 -0.2704002945787324
C 2.3519004617021677 1.244721519542626 1.8566186265505604
C 1.6221125267950143 2.1152090601504163 2.5343200492398568
H 1.1014623311737255 -1.7568522127200665 -0.47854127210274255
H 0.41019010407376033 -0.16443743570136762 -0.7564816428730352
H 0.7374037975579797 -0.7115664148700285 0.8934199634808598
H 3.18662083361891 -0.7725185875930114 0.38971296910748005
H 2.394830541746628 0.39908599850890103 -2.3244643653510253
H 3.0549529647351688 -1.2117613499019135 -2.0365749990097544
H 4.043705121976192 0.2123602209089442 -1.7213023856116891
H 3.660634206912912 1.5861305647815556 0.2538527278153678
H 0.8249318218518742 2.0519899761237546 -0.2307546230467878
H 2.0599698875840353 2.3918021523901865 -1.2398651758557295
H 2.8370264225513417 0.4214807558089439 2.3833454354992147
H 1.1402353669682566 2.9491088573517836 2.0439071183707456
H 1.4934394121096526 2.0110823426635447 3.610114275193579