14

C 1.0463077533073883 -0.009977771080613857 -0.09210996046691856
C 2.571941197669498 0.04954311697191473 -0.04882390374524213
C 3.039111918973756 1.5026135654103436 0.17907500214007488
C 4.476683954345516 1.6668553644207764 0.07101673636653728
N 5.616584361143235 1.7996994451285029 -0.031020323874819813
C 3.100426173978124 -0.8355085776430023 0.9830269722081483
C 3.532244834407967 -1.5535308966783052 1.8484121943440752
H 0.6673962564721128 0.6188256298740151 -0.8961153985017175
H 0.6172685384517815 0.3420809473999973 0.8472125468805747
H 0.7122028324634405 -1.0350897120741813 -0.25325776923307464
H 2.9704212109692176 -0.28291685928317917 -1.0084208088262654
H 2.718946831394603 1.8490037797277301 1.1614980873504868
H 2.562424170616876 2.1407594741697435 -0.5652789979572534
H 3.914877910195763 -2.1836377201070203 2.6086591764239317