16

C 0.9460978829837634 -0.059401403583257316 -0.08116903914127266
C 2.400721618745196 -0.045078446769533806 -0.07845782100362085
C 3.6059208943950027 -0.04809279527251369 -0.07868677682533293
C 5.075696963302571 -0.007374454118162956 -0.09383198949113783
N 5.625508301408179 0.8509424762688318 -1.1386274255680728
C 5.589480614738652 0.43519484057735547 1.249387528221783
C 6.3167094759726305 -0.3261245068372325 2.0497425822286446
H 0.5512556736126111 0.6945092341043118 -0.7569457732971788
H 0.5582380193334626 0.1371087078464787 0.9157343190723753
H 0.5678888115748595 -1.0310607096529623 -0.407341282815611
H 5.443467527076399 -1.0177319903125437 -0.2789837692653397
H 5.308957105856931 1.8074294877849395 -0.9934602249594445
H 5.2534736071599735 0.5686491122737266 -2.0371145828449286
H 5.326137059966177 1.445903915462251 1.5382161833523937
H 6.592710142038563 -1.3368852955672719 1.7801504809335553
H 6.66604637891611 0.04311811357778358 3.014926056412582