22

C 3.911755273424407 0.027670235665082685 -1.5276686830117066
C 2.982016669906696 -0.7781619987670059 -0.638734572022603
C 3.3657271314394546 -0.75020612237193 0.8423262662134339
C 2.313683003353889 -1.47378563937729 1.677530274059456
N 4.731826365728005 -1.1974374886850192 1.050908978008994
C 5.293234806611495 -0.7721010731541911 2.305005103327968
C 4.95393386863641 -2.6130708646326997 0.8327472484600767
H 3.597644060226348 -0.014373451510000055 -2.577146494462732
H 4.933084055382735 -0.33387995961020106 -1.4613901071968238
H 3.9237067936561085 1.0857297044977534 -1.2303341129914163
H 2.937398593299723 -1.8085894855021898 -0.9867779222173518
H 1.9613122630110504 -0.389466838706739 -0.7195850608218237
H 3.3688242862267046 0.31260905146260065 1.1400250416570226
H 2.1937014672021355 -2.507154011287679 1.355610859279106
H 1.3431094122251939 -0.9829140424188461 1.5855525588778348
H 2.568957117981732 -1.4734811995128474 2.7395665207324935
H 5.174740001013632 0.3136527000302423 2.4226680158545064
H 6.371250598805227 -0.9872799912872394 2.327141500870848
H 4.852463424589584 -1.2583954323263749 3.196327482136928
H 4.57380559679933 -2.9107765052103547 -0.14205293954719495
H 4.498493437761418 -3.2621576313514713 1.597750836013406
H 6.031934773666507 -2.8116653887780614 0.8474989432743829