20

C 1.1984463680650825 -0.2538235403021646 0.9349145955753855
C 2.5953274276282983 -0.6546650284183854 0.4744400421399555
C 3.231830511767105 0.39295396963679197 -0.4320123423362382
C 4.664788011161249 0.06408958297744292 -0.8504816742145728
N 4.827800226162645 -1.1993850246733246 -1.5809822535435567
C 5.330185772723004 1.1397217145136371 -1.660656607612238
C 4.807571778698785 2.30746296623774 -2.0178789418859893
H 0.7636780233433337 -1.019765344341047 1.576135711026286
H 0.5321083124362612 -0.11396057175504704 0.07719982647790721
H 1.2208007933172091 0.6765700692853471 1.493331645910623
H 2.543895737798745 -1.6101492092293008 -0.047890670710660235
H 3.2387917914908657 -0.8040924371424143 1.3507257404805255
H 3.2321984227562615 1.351846748385319 0.0840582861314829
H 2.614749224710476 0.5128915548380689 -1.332008405970642
H 5.262124258556572 -0.04654769906661338 0.06873294313198348
H 4.292136211315845 -1.1715013078888767 -2.43908492127016
H 4.494343967414477 -1.9729594203810634 -1.0369893369898147
H 6.332135295059094 0.8773622938161284 -1.9878846056399322
H 3.812900269992732 2.6055710278758344 -1.735997828808017
H 5.384296967071142 3.0120153438394643 -2.6058227319836855