22

C 0.9939883674935301 1.2135613496072772 3.192396117602011
C 2.491834301204607 0.9578318053803841 3.1271158022440217
C 2.8793140413751126 -0.0013663426815438045 2.0099658301226366
C 4.373429842458278 -0.26182466363446616 1.9031113953483152
N 4.963880812580725 -0.8148792601640367 3.101945496670694
C 4.498256485136358 -2.153597570834236 3.387550145055882
C 6.402263019435966 -0.7759450658132258 3.033525357294416
H 0.7394501630069203 1.8995733143866809 3.9923004076462743
H 0.4458762483788939 0.28076232145016994 3.374503214995398
H 0.6153577629158787 1.6305113983791504 2.258867918579998
H 2.8529529091875 0.5544821775902526 4.077345372580119
H 3.0167986805863216 1.9045309339679541 2.9727184801217437
H 2.5406128372094394 0.403945437596192 1.0484268436314756
H 2.331067460214316 -0.9453667846319653 2.1301516811123244
H 4.870246928225386 0.6903722166157876 1.7068954381235575
H 4.569141412734764 -0.9124857343357498 1.0258963037698317
H 3.4261898667243273 -2.167361022618326 3.5449190574500107
H 4.971858444285078 -2.517714303684615 4.2998963627824995
H 4.730233099214353 -2.867619218646964 2.570337077552102
H 6.749961731809246 0.24986397195295929 2.883303257627109
H 6.8105808301034925 -1.3980749524477976 2.2059034480852873
H 6.838439401812279 -1.142235922557875 3.9653803988474343