11

C 0.9930563860713005 0.17011079168126123 -0.20714918671448446
C 2.2968751615357528 0.03048267840470691 -0.001613629230648
C 2.968989301820721 0.3136975548280006 1.3227781869049042
C 3.5121594156527873 -0.8832489782685429 1.9515462024421328
N 3.9278598502382156 -1.8239250547561154 2.4565013980281116
C 3.1575747291347946 -0.38566359102535114 -1.0753968315978126
N 3.8614231338118477 -0.7065440929641452 -1.9227114505554912
H 0.34236724444115335 0.4955614652561444 0.6031635784362857
H 0.5500148310151342 -0.02883683245254278 -1.1726559940383534
H 2.243183778407798 0.7745788301031471 2.0037475510041953
H 3.792930299868485 1.0271365233145426 1.182277489352759