15

C 1.1898855924641085 -0.31655904184957967 0.21173682467641775
C 2.4920284167245335 -0.09859988765459855 0.0620165379965362
C 3.0805250742758385 1.1452050176050972 -0.3563498406745141
C 4.401428209253286 1.3226374498749935 -0.49641433229527226
N 5.002868374023869 2.4906767356030937 -0.8855638909173615
C 6.3611172800678535 2.6999773564664427 -1.0480260955824132
N 7.3362222963048245 1.9182649517181165 -0.883995965308907
H 0.8028442336953279 -1.2764728258236984 0.525563248701034
H 0.458166896962067 0.4659461005232599 0.025633880259275654
H 3.185417956628672 -0.9154620980747379 0.2595422320350217
H 2.4069004523865525 1.9824177151172393 -0.5601920621278939
H 5.081760428101623 0.5008663729933478 -0.3031270158223132
H 4.4108014990040525 3.2794155588860114 -1.0830804615319551
H 6.571640950226114 3.725099359107858 -1.3643349233570303
H 7.046176439854057 0.9872297825453321 -0.5777448992564373