11

C 1.5013523456010334 0.8527272348391851 0.5165797574478983
C 2.332317947235687 0.033170237251874166 -0.09266581043856278
C 3.107503659961515 -1.0353662795429954 0.6426151755489589
C 2.753438798934189 -2.373037583078673 0.164140622209774
N 2.4345838336609424 -3.4094980997474558 -0.21542056406798124
C 4.553321165899083 -0.8230296233522119 0.5365778081737698
N 5.682251653522116 -0.6202776817394913 0.44225316429196637
H 0.9666995696317988 1.6116798866593387 -0.03908581853366486
H 1.3224527925499217 0.8058901446945351 1.583191232602158
H 2.517693910818824 0.08611492032664488 -1.1658769199361965
H 2.8541582273617165 -0.9947541904675365 1.7082175723668935