11

C 0.9657959920988315 -0.17317925903632825 -0.14470236858087088
C 2.453253141755741 -0.10700512173566817 -0.020034266449795526
C 3.124091454570472 0.4271016519717524 1.0263074793035087
C 2.455685360742134 0.99394997601271 2.1411993204826776
N 1.9336589705485199 1.4612279596750597 3.055637869245476
C 3.2153172198853746 -0.654577108561599 -1.0912597223265819
N 3.8062036407432895 -1.1074980505201086 -1.978765913214597
H 0.4803670373781977 0.2697836629926709 0.7188422571155347
H 0.6486006795441216 -1.2097205095280945 -0.25815232717482733
H 0.6491149383744554 0.35250203994249446 -1.0498374446233922
H 4.206909781151808 0.4367129991855831 1.0416271914235327