17

C 0.8136374214446327 0.18164459044717443 0.1890482568772151
C 2.2622490288963784 -0.18097413397944465 0.23300172532319596
C 2.6283345548752877 -1.269108014471976 1.1890680321807203
C 3.1324055329999436 0.46331105725854954 -0.5515239421218353
N 4.499841957737871 0.24015054061280214 -0.6226201592638237
C 5.384106295362758 0.9004183627400433 -1.427172996333995
N 5.191334129763265 1.8266016105501213 -2.276696929101021
H 0.4595419721918832 0.5125972733066223 1.1726456478426335
H 0.19899680813189244 -0.6867667728206249 -0.08510295335882609
H 0.6117565911629669 0.9766484886118341 -0.5227629590688571
H 2.0783847344575266 -2.1902454515816796 0.9577378089767101
H 2.347926320752104 -0.9946955218965563 2.209483693273227
H 3.692424842830847 -1.5099273505512372 1.2033950434955274
H 2.7766535336561495 1.240244846788545 -1.2131771351686589
H 4.8901809056956544 -0.4772623947580954 -0.025194357585950997
H 6.409407056446862 0.5330060288450962 -1.2920470936156776
H 4.220738346326352 2.1098982638833093 -2.344252781861805