13

C 0.9170748621653415 -0.07987347740694925 -0.005114486377044507
C 2.46127433693197 -0.10079715716054358 -0.0016051933173171808
C 2.9883457809298624 -1.5245136712445713 0.258825584500142
C 2.955014993611127 0.3723547473964647 -1.2960774103359234
N 3.3163091020124464 0.7089818204195193 -2.3373593913755255
C 2.9484724242152622 0.7951335278813277 1.0588548784345704
N 3.3109205341626864 1.471003016376646 1.910260814564467
H 0.5567919604034348 -0.7495239286299854 -0.7838139414396612
H 0.5462342082312933 0.9282355278515184 -0.18191878085138483
H 0.5547534719555947 -0.4310843334864105 0.9676669083550378
H 2.633173120233714 -2.1951648697457493 -0.5291370513556067
H 2.6278877193749524 -1.8805976067830261 1.2216087758115022
H 4.081539623849529 -1.5358813849270594 0.2585542131328556