13

C 1.0694158523951967 -0.019359105996067875 0.06698154065331843
C 2.5945453113530292 0.011523525358655374 0.0015361623542911628
C 3.0791865346933283 0.34404436026451124 -1.4152561114468798
C 4.51343273691345 0.19569597792355128 -1.5964208334920171
N 5.645641546606054 0.053343720078865446 -1.728093901760537
C 3.131269320716718 0.9634688261141104 0.9652164767767565
N 3.525437236931654 1.7274095101543088 1.7303226032982457
H 0.6767560039383137 -0.7755525943017474 -0.6101620477071507
H 0.6511382293894907 0.9535227749641213 -0.21354168723991823
H 0.7264645020833902 -0.24660907731779316 1.0777400372496955
H 2.9880139549693214 -0.9761600205175701 0.2718111329036721
H 2.7876365906378475 1.3650546291798533 -1.6780129284868008
H 2.571572037751239 -0.3255989273650487 -2.1236931335031564