15

C 2.5221009113418793 0.3298733898229855 1.4088544659731759
C 2.5751615366410547 0.12528180941867043 -0.10000950888402849
C 3.026225413143663 -1.2518175041875859 -0.4950843860219516
C 2.1910991420583006 -2.266239143888192 -0.7966893892100059
N 0.831601847508192 -2.2331633754760065 -0.7627509969485103
C 4.411494104532604 -1.5113642926727302 -0.5169802877275484
N 5.561023722443683 -1.6853048477258985 -0.5193047172441558
H 2.2128366599385245 1.3483211756196054 1.6548504570892726
H 3.5089196274115007 0.17006336344698686 1.8518778312557391
H 1.8282975348015678 -0.36355150548113574 1.8763421021020197
H 3.255847619561758 0.8641296417945135 -0.5424573284779669
H 1.5951626179713583 0.33639910419072494 -0.5341425729052784
H 2.6034260615328026 -3.2375993960801273 -1.0637529921081483
H 0.3585306833650581 -1.3469308223313676 -0.667125452042167
H 0.3225573494179086 -2.9507996552480464 -1.2532987981812131