21

C 2.8785157911528327 -1.2106835296573732 0.17161449874140025
C 2.7943841427034477 0.2847633442155923 0.4031054156648028
C 3.2558216326825145 1.14558279378851 -0.7807658152265835
C 2.699329858199146 2.5629526854862816 -0.6831263372515394
N 1.2533444173994193 2.5781093334523195 -0.8779288692073075
C 4.779795521143003 1.1710010185243118 -0.8985893265511531
N 5.197435827963195 1.7026141654173277 -2.1898108351516283
H 2.5441417653682605 -1.7685525062151373 1.049521314410817
H 3.9073462571812705 -1.541392047212765 -0.051617537387719
H 2.2497401609609633 -1.5102264683024438 -0.6740585403774707
H 3.374452406005123 0.5673656585808624 1.2871773026077065
H 1.7579903864518025 0.5566165646604372 0.6112149035690587
H 2.862682216507524 0.6977059015948922 -1.6992772709353503
H 3.2488475890643147 3.196830714356741 -1.3956035718206794
H 2.9155798038138685 2.9473234020726413 0.3145612297974826
H 1.0343619697011295 2.3874775205378893 -1.850128951171728
H 0.878481686134915 3.4900608363264314 -0.6726208604921303
H 5.176789784068627 0.1683709295913293 -0.6917151964717428
H 5.174254785731501 1.8253946289413603 -0.11511829954880488
H 4.971530719487189 1.0487817569531044 -2.930724881751049
H 6.20094085561046 1.8347831173133695 -2.208723048193859