19

C 0.6106119636517123 -0.9271183638345494 -0.5515380383831213
C 2.0541278574015602 -0.7178214720991096 -0.10565533306272408
C 2.80781718206447 0.26847923560572917 -0.9769545139694721
C 4.245318635629189 0.5154752840075545 -0.5349206582766551
N 4.3602875697012395 1.1580019174273353 0.7470492598996749
C 4.762621872238497 0.5259942862920516 1.8929048178811
N 4.821302553403939 0.9682334736339934 3.081018365377903
H 0.0922653150029806 -1.6417498791740965 0.07899873441335663
H 0.5664575277709064 -1.300768585213827 -1.5854809335744688
H 0.05135999683608133 0.010664400419149449 -0.5205995641415092
H 2.5757779677914647 -1.6861483594231732 -0.11254460853905873
H 2.0676061671111605 -0.3780925279254826 0.9304641483184186
H 2.270328310792388 1.2236848253085224 -1.0076345545097631
H 2.8225052378913573 -0.09551369728854446 -2.012049258605921
H 4.757606281386564 1.116146448249906 -1.2972936453758424
H 4.787732318357945 -0.43877329829278006 -0.47956902126357864
H 4.023572794795007 2.101665803852393 0.8323341734234394
H 5.075302232945284 -0.508877770271306 1.7081655287023516
H 4.508953276677636 1.9328439777524051 3.1367191856673484