15

C 0.751949578357497 -0.10567413796006801 0.0774608438828891
C 2.228808342029672 0.04297882260894105 0.08358871914472338
C 3.1006899060480957 -0.8842794856262581 0.5021280420478372
C 4.526174866260602 -0.6757642558472355 0.48083886750484023
N 5.326829641403468 -1.5777068829047727 0.8841512214980826
N 6.652630882744424 -1.172559581013579 0.7867691819443522
C 7.46480801460759 -2.058488694755043 1.1870301222210715
H 0.3547223514701995 0.019518475199585633 -0.9337682512361646
H 0.28200360298270144 0.6682170074650596 0.6865313464057815
H 0.4448741601844909 -1.0822381162411727 0.4538741346235083
H 2.6254851217132136 0.9899861147115215 -0.27047152290424215
H 2.7484381172908803 -1.8477884414163561 0.8707577839279793
H 4.909732190580769 0.2815561145089349 0.11779728292461
H 8.528988711987159 -1.8329524576724847 1.1392943214213802
H 7.133073191245846 -3.0297533288219958 1.551945371725023