15

C 0.8837100707663659 0.006454734805709013 0.1225109093186495
C 2.356670322320006 -0.2623099799138535 0.2179648886625882
C 2.909335868037042 -0.9448499747840823 1.2235861798526726
C 3.2141592715158156 0.22936033135233913 -0.8391657876857346
N 2.755746349303388 0.8834828968225803 -1.8320104121866128
N 3.7508635532884207 1.2636207661475969 -2.7221350594588087
C 3.294985355290629 1.9198825937868877 -3.7124829411157
H 0.35256138267255943 -0.41969380735923073 0.9719198703809137
H 0.482317567408017 -0.4074336369045099 -0.8050700507040827
H 0.7015036488765025 1.0854230878816276 0.07803507161788593
H 2.3214948309733265 -1.3423181727448263 2.0346921345737923
H 3.9859249449257175 -1.1228390715489491 1.2480018475468109
H 4.293255436182562 0.02990064216825535 -0.7697713512803372
H 4.003536135402252 2.2601923885978623 -4.4666361014594544
H 2.2351057648267183 2.140383247681389 -3.819927897156363