15

C 1.0632417379428523 -0.11489261433232509 -0.10304883838344375
C 2.5048462187846785 -0.45059901652706136 -0.29201310514188744
C 3.0287425369861625 -0.6910820742140528 -1.6334368428007415
C 2.2822588438284215 -0.6460147774910077 -2.7401106926849845
N 3.212092899334019 -0.4929497781160259 0.7868302139435024
N 4.551786125228619 -0.803523413438281 0.5823538557958972
C 5.199480387097958 -0.8310164743438128 1.675672562026507
H 0.4233375319604139 -0.9186879540852397 -0.4869044256127394
H 0.7915933736413637 0.7920254528927011 -0.6512410051603095
H 0.8540557441482454 0.03706632774694308 0.9512367613102958
H 4.081963048102757 -0.9302435829451029 -1.6951522723189376
H 1.2243490402706947 -0.4082837581892714 -2.7159830661536573
H 2.713158313208612 -0.8292889876384905 -3.7127690477903337
H 6.26009298828953 -1.0665839553005525 1.6313677249699712
H 4.717785233328086 -0.6364670804793506 2.6380223845652004