19

C 0.9492992844739183 0.12278835419355157 0.09782699404388745
C 2.4651529352745873 0.1874952592756557 0.15897489278212815
C 2.9681631761272067 1.4787773448618684 -0.5030665365324869
C 2.9370920774526286 0.1293324555060551 1.6121743970775169
N 2.966301801042591 -0.9623579220535692 -0.5769753634468309
N 4.259400991503763 -1.1690071039902743 -0.6888478149392037
C 4.699145491702682 -2.18113917444766 -1.335183349930572
H 0.5096197754358127 0.961347786922895 0.6274740455834847
H 0.5841600453563893 -0.8014662226610177 0.5535574027416353
H 0.6004659567076542 0.15757751101971237 -0.9450503877686193
H 2.6149463464657465 2.358726198252052 0.04656392379378945
H 2.601446649006175 1.5511286797865702 -1.5320340180308942
H 4.05762221147007 1.4885834812394645 -0.5212573880173947
H 2.5893306732685337 0.9979052133576842 2.1693351836662558
H 4.034481502086106 0.10790438280975626 1.6417677107793505
H 2.5641191860048536 -0.7711342288862628 2.10169788736297
H 2.3052619417166147 -1.6110449080309452 -1.0004689182116764
H 5.7728134594275815 -2.309783445259424 -1.4020073484911446
H 4.047877036485146 -2.9203771974253403 -1.8087150310453282