17

C 0.9171826580908856 0.023426356436426557 0.11638825440686676
C 2.4398989136883977 -0.008177712574625674 0.04112385202178515
C 2.9387807038050116 -1.4178349891260122 -0.2796908592667848
C 2.9190075413278573 0.9429648579623273 -1.0059889500123051
N 3.672422069664202 1.923412618733852 -0.7133341131770536
N 3.9873447419959045 2.6889385095084046 -1.8471136706877693
C 4.746356983442054 3.665651935960182 -1.5638221840739974
H 0.5559153860673697 -0.6724075207773758 0.8738163547205154
H 0.46711515614544225 -0.258658646430561 -0.8415380867148433
H 0.5485382063858256 1.017945754182845 0.37918094311282197
H 2.8546831612248895 0.31832975551777887 0.9935861380523642
H 2.568450252860215 -1.7602897528190187 -1.2491142473998647
H 2.5939300392184954 -2.123579934115124 0.47791175275624204
H 4.031998568067976 -1.45897447380483 -0.3005112753781385
H 2.595278280692254 0.7881511424428838 -2.038364413967229
H 5.057142189481852 4.313027372809078 -2.3786386373634847
H 5.089011046957303 3.8619969160872167 -0.5457662666656563