19

C 0.8634415845019994 0.1780206287143728 -0.28911197335623223
C 2.3809145865353236 0.1546026716449892 -0.29133610592123704
C 2.960062121664421 1.5436834155687527 -0.04766906734318577
C 2.9355774743986176 -0.8254624842415309 0.7435976081163751
N 2.558309633998942 -2.1848233679522493 0.4387777387874092
N 2.68904736894519 -3.0652767531431904 1.4459643904887793
C 2.8355740775469194 -4.292358357795296 1.191424061992596
H 0.47155240053058944 0.8256138519219741 -1.0756350331528208
H 0.4831291794865586 0.5584989559050587 0.6685497574389848
H 0.4541702781015571 -0.8251971484455559 -0.4243415888307392
H 2.719263292686849 -0.1825621732617436 -1.280702071871789
H 2.661776955469609 1.9176140417924872 0.9382706900921645
H 2.5916705355607434 2.2561067044683623 -0.7914970604958051
H 4.045581249012744 1.547454400059472 -0.09711862816732963
H 2.5283250841832925 -0.594661471172492 1.727710152731699
H 4.025866051751747 -0.7065975318763349 0.8071336575761306
H 2.89057364433879 -2.518541593803496 -0.4664899633921537
H 2.8833537812612087 -4.986594347566097 2.019718850299329
H 2.919068269109703 -4.683670270933902 0.16904929832714308