15

C 1.0419693566300299 0.06744198430319989 0.13457151435545256
C 2.495080415774018 0.06365568559805902 0.1080121435019072
C 3.700748925478007 0.05841250713430596 0.07551372418209983
C 5.151170248337581 0.05525864940881388 0.04822911076475608
N 5.649845316947232 -1.2898254416514618 -0.020362431731824927
N 6.959673416053866 -1.484836907849958 -0.053372571640570916
C 7.433426105705159 -2.657010276720583 -0.11896720562556888
H 0.6414132449403503 0.8086470458561066 -0.573922733928601
H 0.6724419853304734 0.32033360224139557 1.1266158064086689
H 0.6456396128501637 -0.9052141511392361 -0.1333749074064778
H 5.52995820452181 0.5644345803796659 0.9475604953883711
H 5.499515467805292 0.6441542598106562 -0.8147645497258296
H 4.999074465785388 -2.064263829345161 -0.03815232266105056
H 8.505474788472743 -2.773511435066955 -0.13929157366330724
H 6.803792702742999 -3.553449361620518 -0.13873266695142317