19

C 2.339658549354577 1.3375151070652325 -0.49320767548710237
C 2.6574627216520588 -0.09153097897192669 -0.05571636540352135
C 2.7718371420921097 -0.2415080740062934 1.4215634159150583
C 1.548651282598239 -0.06999286347993966 2.2743031291110967
N 3.9220751617014744 -0.5328081556102802 1.9025858772606843
N 4.042339837058007 -0.7195219766962359 3.252783600159232
C 5.403545165949134 -0.6415907229492345 3.722539742515923
H 2.2272118800847704 1.3987179233830493 -1.587385477495478
H 3.1240383614535157 2.0228148799731924 -0.19322012807457636
H 1.4039429302237467 1.6871414545273078 -0.05840986644609798
H 3.602404564165672 -0.41107159351459793 -0.4979910544125793
H 1.8752656286654288 -0.7658310099739429 -0.4275133750056005
H 0.6572786249562602 0.07727746982819998 1.6599363728833774
H 1.6385090991783795 0.8012336058072733 2.9395117781249827
H 1.3935858387436404 -0.9475744103632796 2.905315248944926
H 3.3910140845966565 -0.1700852611441991 3.81069614317912
H 5.85705453258731 0.3465748429942152 3.5728597119127
H 6.002055228024508 -1.374362804700437 3.1809278051650143
H 5.420470822665463 -0.880761068340339 4.777757364912688