19

C 2.8685882294278855 -0.7289281406189336 1.0784142616541232
C 2.5380536758726038 0.31600704228198173 0.023672488458170535
C 3.120480948094905 0.005513464341732178 -1.3486917706423007
C 2.617178603682676 0.9801170056783087 -2.4100016800822304
N 4.56845891853522 -0.05153804315289476 -1.2911854368008064
N 5.188684553354382 1.0853168517032068 -0.9434364831241727
C 6.411149058340662 1.2562193338224332 -1.2730070774641444
H 2.4235859693714645 -0.45867675725500573 2.043375008266897
H 3.9487753104347245 -0.8181531777078903 1.2100647754086844
H 2.4796493702161575 -1.714775182172318 0.8001864615381518
H 2.899152984710542 1.296913946705213 0.3392782105272851
H 1.4475243428675857 0.4039913215395465 -0.08465517408196947
H 2.813385885679829 -1.0089923923875426 -1.628409500924557
H 2.923702829629948 1.994299321181765 -2.157359433594116
H 1.5275822645697155 0.9536211722558426 -2.47128260752951
H 3.0178674479330048 0.736829343339921 -3.3881055559022504
H 5.006602619898582 -0.5632332939789547 -2.0508666704773
H 6.898624444844868 2.1664919491462737 -0.9292026429893834
H 6.97890526883835 0.5412081368802165 -1.8665908014214811