20

C 1.170260218064467 0.03482736471758651 0.7434838741042544
C 2.675148148970057 0.13253169706887802 0.5108222363767265
C 3.0287234742537064 0.12479728143032003 -0.9567707777930097
N 4.462252256618056 0.1729311087169219 -1.1591669721687654
C 4.917062484003916 0.6662333842083821 -2.4368316271497803
C 5.07075248642108 1.485015187960096 -1.2227328373335549
C 6.388085895354687 1.6901171433698023 -0.5393035262483657
H 0.9390937399330357 0.03624617742508496 1.8088966309317063
H 0.7594390215478638 -0.8826053863659903 0.3137666489259831
H 0.6462923143209057 0.8759719138377586 0.2859371624360201
H 3.179951697936702 -0.708869756269014 0.9991513938983481
H 3.0674024604029424 1.0425797171981022 0.9770466799030715
H 2.5254723577915548 0.9774613035562495 -1.4614188554093066
H 2.655899336902923 -0.7892011431544947 -1.4293155395389052
H 4.1708556268953005 0.9677235800458796 -3.158014087368558
H 5.786687922771217 0.16246971752550315 -2.859389921553455
H 4.379460215982681 2.329846540311207 -1.1422126552647667
H 7.012679265005549 0.806794086242942 -0.6523528009153975
H 6.257564579959919 1.862787555839884 0.5339492830928374
H 6.9181611344357234 2.5470092772723016 -0.9548173012352482