20

C 0.8631167156213648 0.28040258505803106 0.1822652195204002
C 2.2715985236573504 0.8501054546753578 0.07374772643169017
C 3.3310911030004364 -0.23769331381226377 0.03988718974716699
N 4.659296132947378 0.30459374767808 -0.052587457033690554
C 5.783711466404685 -0.6371042487739503 -0.11602067279993365
C 6.478845823581539 0.324482903474167 -1.0997180395640966
C 5.08196634397149 0.9130389370995713 -1.3207610515697006
H 0.1143081331766096 1.080981808142686 0.20163896974930823
H 0.7397260239420462 -0.307905262052204 1.098263259400348
H 0.6316382206185528 -0.3716172543568092 -0.663151894183095
H 2.4778764632014925 1.5149899567794487 0.9232600113636148
H 2.349700326503745 1.4592798375292495 -0.8316831654560344
H 3.1131959445580626 -0.9316388954531869 -0.794829800578735
H 3.271724456540796 -0.8325970710705867 0.9622261353179109
H 5.514484260529886 -1.5821451402001128 -0.6037449165081503
H 6.268910639303459 -0.8527755431325763 0.8364328451271775
H 6.97854166959373 -0.11058716936806348 -1.962536143357943
H 7.151003302435089 1.018773175663752 -0.5895664238306253
H 4.578942458829185 0.46970361290182955 -2.1883016436335536
H 4.97720715119766 2.0086590128691393 -1.3668709377822617