20

C 0.8580857206798933 -0.31945936931873475 -0.37407438401291243
C 2.320393086475514 -0.07805806891767085 -0.05309692370328085
C 2.809887264027087 1.2732100833067854 -0.5616775671473544
N 4.201260284582194 1.4894630379064895 -0.21924161840445677
C 4.720982249243906 2.735183938335593 -0.6793060805222081
C 4.591691629722675 3.916773214149072 0.22231834624712823
C 5.932054922377334 3.2882832777731092 0.008431816945521772
H 0.5311124739280073 -1.2968320859223967 -0.005129082174062587
H 0.678028034401963 -0.2930429935234771 -1.446950098132008
H 0.22341878706505972 0.4432561291340691 0.08886500764096218
H 2.9381545269913882 -0.8703196652863836 -0.5011717366625982
H 2.4960159203846346 -0.12146851745331193 1.031739993994212
H 2.2254390661209107 2.0712028150357606 -0.09716830614326744
H 2.6245175211663683 1.339014007475855 -1.6482858355328573
H 4.769919817613403 0.7202151318565543 -0.5695985957164086
H 4.641022878686345 2.944680921511918 -1.7504766338981725
H 4.105728692827113 3.7436647389125985 1.1813179340008941
H 4.399210737896159 4.890362678071788 -0.219569745200736
H 6.331197164250736 2.7004411828077655 0.8253303788762023
H 6.6629426672692045 3.8133449641575123 -0.581459012619984