14

C 2.249526906288619 -0.8879904194809808 -1.0027117497427749
C 2.156637698734915 0.04193491572060839 -0.06287649696718112
C 1.1162333729774117 -0.06176652708165732 0.9242367995519766
N 0.2999935057014242 -0.11334448984544897 1.7359853291352065
C 3.0499642882827076 1.2161646728471363 0.08406532118956728
C 3.8770717989397716 1.7336844208535975 -1.0531420088438983
C 2.6888283892643527 2.5251000935184 -0.5827382231801843
H 1.5431415089132168 -1.714202423129074 -1.0618103077669663
H 3.0431845600441596 -0.851033581915576 -1.7524344156388167
H 3.479726101283986 1.318375422025237 1.0756315068183984
H 3.7868342376651407 1.2374241208636285 -2.0068166361427293
H 4.868113459400736 2.10600419868559 -0.8276561127794454
H 1.813343474411417 2.5217765706236612 -1.208075762086215
H 2.8592541800912814 3.4379198849952486 -0.024359440912845955