16

C 1.0130446585473012 0.04473673967841807 0.11358351236747592
C 2.2133746463498847 0.12198332002930229 0.043223944376833245
C 3.6541693554762715 0.2139630615042989 -0.06627117635920424
N 4.275846395443959 -1.0991365868221965 -0.1445810725175869
C 5.686141591316418 -1.0316163261858815 -0.3569372758326137
C 6.5614015634145835 -0.943343957114553 0.8541541464116875
C 6.50682211486792 -2.217003730206201 0.06435090469803943
H -0.04741716134295264 -0.023004312011074248 0.19147962810598773
H 4.053553221864123 0.7301492673346704 0.812608740421762
H 3.898866902605116 0.8483923897513185 -0.9400906769630694
H 3.825117388866485 -1.6566087158949931 -0.8637684319331674
H 6.039536795735482 -0.4891435422558787 -1.2407117765288127
H 6.061997661733638 -0.9297091726102963 1.8117144809636319
H 7.455098916707044 -0.3319343352637575 0.7956173539219089
H 5.961212966387948 -3.042465605978992 0.5056770534411982
H 7.3554673582686885 -2.4907972810727 -0.5394848049569133