16

C 0.9642892270958626 -0.18249362086317505 0.07134951620370127
C 2.4808631438133544 -0.02518440995492874 -0.06807211417517839
C 2.96705224338657 1.0285003503648278 0.8232216054306226
N 3.338756069767936 1.851715177546197 1.5334799984710572
C 3.2008208179696966 -1.3374738819221044 0.1765616402684083
C 4.638323773302927 -1.391288959265711 0.5944210999487859
C 3.5612466453026705 -1.7958448251930854 1.5547063421805245
H 0.44685853744647197 0.7563820791951371 -0.14096793446194186
H 0.7065003584973284 -0.5021212310382484 1.0836764701593327
H 0.6141078054607214 -0.9373299166083467 -0.637173122074005
H 2.7051285619433316 0.31547525647711633 -1.087041207555905
H 2.8738470846505435 -2.106555892095537 -0.5179388042954859
H 5.142513472895374 -0.4532229526527022 0.7869428153625444
H 5.259153052941551 -2.169102448265507 0.1628701370546729
H 3.3543072194053316 -1.121279811242502 2.380902675489196
H 3.431349297352908 -2.844457078258065 1.7940006672121493