20

C 0.498283118333385 0.061749915466910166 0.863436135099268
C 1.830110768231631 -0.23732438090952432 0.1739959500102016
C 3.0001034900896175 -0.11709396764330797 1.1433653620289894
N 3.128904111304113 1.2305371344400462 1.6686429840708814
C 1.814191616934625 -1.5984149488002002 -0.47241875275685835
C 1.1905304751253583 -1.7743956814020834 -1.826125766593917
C 2.6770476181160308 -1.873130521354492 -1.6674925634188742
H 0.533151761575903 1.031732130684785 1.3635047015341564
H 0.28358905386095873 -0.6903199929817617 1.6249018473550518
H -0.31862538090067893 0.05686267477156269 0.15026752393535792
H 1.9793510211969783 0.5087250198593416 -0.6172935366976061
H 3.9058079458082546 -0.48484089945341236 0.6347602465555486
H 2.825205510481661 -0.7913240639079235 1.9913125734692214
H 3.43372210187117 1.8648366332172175 0.9396457577859884
H 3.8330487414953702 1.2689745525468934 2.395794465619865
H 1.6825140386979505 -2.4159611090557513 0.21445831051962522
H 0.7935126818527878 -0.8940559453675688 -2.312119004270319
H 0.6299672590454025 -2.684580780966791 -2.024967509252635
H 3.2805236527202366 -1.0633799741353396 -2.0579984137996328
H 3.1383707928898366 -2.8463614428786426 -1.764178539282375