15

C 1.0533068582003204 -0.16721340785234035 0.00020720172069855353
C 2.578609231539781 -0.0796239212916925 0.047507846622396196
C 3.066575810003751 -0.5031497318108478 1.366597752190692
N 3.435574076927188 -0.8636138612279496 2.389986082970563
C 3.2249025759005012 -0.9008998950188019 -1.0598850282367824
C 4.579794481420913 -1.4591500161535391 -0.9463618633727762
N 3.407254632588264 -2.3351895787520696 -0.9431410294359073
H 0.5956497111916484 0.44532351200580933 0.7720956234771134
H 0.7151284147111708 -1.192364771271235 0.12130724569937067
H 0.7057174509472668 0.19615220957104684 -0.9742486449530305
H 2.88942664255446 0.9650592733414965 -0.07478812996347241
H 2.8802211471939967 -0.5857105331406459 -2.042452291514553
H 5.113277110218837 -1.320274084634691 -0.0008575725034770838
H 5.205719480386537 -1.540612796152308 -1.8211649673696475
H 3.2112388794366966 -2.6448542466448064 0.007814404952927755