19

C 0.3111677820252841 0.6081426738578326 -0.31046122182458435
C 1.6814062307023636 0.09391534732741869 0.09877466516825142
C 2.7821862599314002 1.0794081692999942 -0.2692827152598015
N 2.8618378894680045 1.2784621831436203 -1.7078725412807239
C 1.7302996071703214 -0.2157789902115216 1.5686283259169538
C 1.323457815787097 -1.544151362534281 2.076152790477181
N 2.7271724338834247 -1.130317122740492 2.1179178189093193
H 0.307740206252422 0.877581245947273 -1.3679335358061364
H 0.04687203398402656 1.4954419918427906 0.2667641274136695
H -0.46530123312956206 -0.14825590867780197 -0.13565685982784254
H 1.882128658551325 -0.8498225125791132 -0.44162333897885436
H 3.7320529866389127 0.7377107005796155 0.18184364807046283
H 2.551014162910714 2.0426328235160005 0.19113550164818552
H 3.2322504508120535 0.4494594708604065 -2.16477291514441
H 3.4950763107023364 2.0361467551080534 -1.9355738096069786
H 1.5390559026078614 0.6383628081549981 2.2172785136457005
H 1.0321382722507426 -2.2883586654932566 1.334113250886751
H 0.8517359368365105 -1.6493509802357118 3.045050421414334
H 3.2406745143537528 -1.5688727297197311 1.3521843187167188