19

C 1.5128995767036875 -0.2937210009827808 -0.8384025548172968
C 1.6182150338986077 0.06611777037482565 0.6225570595548535
C 2.8019469177793894 0.962054622525004 0.9871983832950196
N 2.6883781817124035 1.3262366883108971 2.3889980609106773
C 4.125861754431689 0.26978502866633597 0.786326095295886
C 4.860493839367606 0.39403924451655614 -0.48961145573391524
N 5.348165258022766 1.0612060251598208 0.7140508610107015
H 1.4654017648375537 0.5927984592305673 -1.4762325373755651
H 0.622224186156496 -0.886315860717636 -1.0428205766861474
H 2.371765425453038 -0.8877553005387231 -1.1651065670960439
H 0.6976776513737557 0.5967691604883806 0.9273472893865699
H 1.66255363230582 -0.8337799157832887 1.2500157909021956
H 2.788134945196069 1.8407172480668703 0.31186015433438724
H 3.4882839602811937 1.8731035790478987 2.681723909304394
H 1.8590406201825131 1.8760587348651812 2.5636201238713476
H 4.236814174627502 -0.6426416842655295 1.3617533680202623
H 4.423035137727964 0.992855110420455 -1.2723890245137741
H 5.4772220468030195 -0.42698662664363773 -0.8305347166256489
H 5.114297053219467 2.0485129032159897 0.6646515795490027