18

C 2.159600163249169 0.9885072740752006 -1.4472415611110268
C 2.3338299267025064 0.7494251444743646 -0.16222695105357277
C 2.8820162322849145 1.7302239749986532 0.8122207428319266
N 4.038367444169735 1.184102656672816 1.513675064727619
C 4.58632974785915 2.080613563844237 2.4997707827954034
C 5.760664065774943 1.5010236022348653 3.227707752224438
C 6.204316565907367 0.2637975003061141 3.128031480786156
H 1.7494228210806737 0.2458449016287121 -2.1240553268660314
H 2.41748321897019 1.9593373231125175 -1.8861645640501117
H 2.0858022636035374 -0.22219979352230235 0.2524807306458174
H 2.125792908212396 1.9534141026999705 1.5692578852749361
H 3.1002310448804558 2.6887672366088 0.3057039878280882
H 4.7442753242819835 0.933865791044687 0.8348683123954849
H 3.8020013157316974 2.316152697215969 3.23168805078829
H 4.89425941735049 3.058922730246927 2.074313773759741
H 6.272551507159984 2.2057159413065377 3.8872435625435435
H 5.71037019646944 -0.46875138741395433 2.494411064172792
H 7.063445214802825 -0.07693701719217122 3.6875543296438065