22

C 1.9684018782191244 1.0745326438785479 0.14755686188200798
C 3.4326321369285564 0.8723530092772079 0.48120228715194713
C 3.5932840369317676 0.5028073469305037 1.9467665252066852
N 3.950984579104538 -0.1797551930761908 -0.3670465527603924
C 5.394479051775654 -0.43047746717736984 -0.3576321371861358
C 5.669984168697366 -1.6162438003461945 -1.265866670521118
C 6.2495056234707445 0.768225997578744 -0.7581630975262039
H 1.5277394776756588 1.8741846012877286 0.7607660691802737
H 1.4026810266831298 0.15517990358505263 0.30692097731675266
H 1.8383445167335841 1.3685403710468123 -0.9022042009973805
H 3.9496851372281454 1.8312906537123288 0.3226075781149712
H 3.105105397091115 -0.4417115389761985 2.162301574549949
H 3.1463172166894107 1.2740881956253916 2.5863321562623183
H 4.64291985563628 0.41876894426395594 2.2422425041524927
H 3.6517618627798654 -0.012912150531669872 -1.3209084853100646
H 5.661632275302006 -0.7201713692203408 0.6613240113856507
H 5.414727287135679 -1.3768047174060505 -2.306996434117002
H 5.079473014225699 -2.4798171487051293 -0.9602137472684377
H 6.731856163335804 -1.882955955188959 -1.2442424325702743
H 6.021766495572312 1.08726041381332 -1.7769420920343122
H 7.31495789650287 0.514586083753268 -0.7179879903212407
H 6.084598009938836 1.6197691378853456 -0.09099358237496574