16

C 1.096610181109289 0.18811210453308136 0.2171145245533824
C 2.5653758389276713 -0.05362209876680732 -0.148546368008107
C 2.845399199061082 -1.4826036537284442 -0.1693169214728236
N 3.0300402897032575 -2.6128950366536468 -0.1687967941194594
C 2.968221725279445 0.6281910997213002 -1.444474498143235
C 2.93777733051103 2.1275427499814397 -1.4036430362674022
C 3.3294007115238484 -0.05210499398738456 -2.5248337444575406
H 0.8512333389488757 -0.3125222173355811 1.1550162967748507
H 0.4416798906488076 -0.20188866385951976 -0.5642500320301274
H 0.9055186538855069 1.2606394301097268 0.34184744416387514
H 3.1910853639999908 0.36897350872530904 0.6497286824267454
H 3.545914834543256 2.514320197833696 -0.5824377493892573
H 1.9255281462300318 2.509709418907834 -1.2526405474989353
H 3.3159676856616294 2.5404846074186014 -2.334728125799379
H 3.3627109459323785 -1.1297004142243805 -2.5459408075502674
H 3.604764779788223 0.4660482180895895 -3.4368535995686313