18

C 1.0918718802939293 0.0917322814990511 -0.16210588505778656
C 2.5603254945802725 -0.018518552191042346 0.21507693217225834
C 2.7669262711174154 0.24358221575729416 1.7052047772368741
N 2.4277344807178483 1.6122086791033012 2.0565212750633015
C 3.1140139178830855 -1.3890492337164453 -0.1895975542000436
C 4.547421566338769 -1.5179309940268642 -0.04767721359896668
C 5.741815708524357 -1.614268042537546 0.05937765598233149
H 0.6784489251256598 1.0377280192288478 0.18492615411944435
H 0.5048884192335903 -0.7122847090900485 0.2942955835933663
H 0.9558695408853173 0.024952602367103265 -1.2410649514780396
H 3.1263067691205517 0.741666863665848 -0.34019991748629874
H 3.8031356647010397 -0.03050504923769175 1.9633775498032955
H 2.11103009159235 -0.4285338688132871 2.2749411401523374
H 3.1170708331498256 2.2507117945191566 1.6794295616846493
H 2.429381838539151 1.733526193377212 3.0578778037657735
H 2.841328391741274 -1.5957398904653253 -1.2257949191820219
H 2.623155235260252 -2.169843192210729 0.4190588063923674
H 6.805556284636641 -1.6934275176666982 0.1440916954958774