20

C 3.015463326807417 0.6689731541017762 1.0296608048910256
C 2.4202934446008824 0.36250804003953174 -0.3270504614229526
C 3.0646895756937824 -0.8382615060871669 -1.0460531683448966
N 2.3700662391588554 -1.2356141285477031 -2.265858738833128
C 4.500933879491801 -0.5615272430333513 -1.3729881899262941
C 5.547288294286998 -1.1973969120807388 -0.8690478874827382
C 6.967502633873625 -0.9112166199422942 -1.2000387849033953
H 2.496147566774102 1.5069173308260921 1.5062630178877594
H 4.068943095409975 0.9182177200156443 0.9526505562615613
H 2.92129905055563 -0.19167161169776492 1.7043716374062359
H 2.4986723388145315 1.2362779409282123 -0.9831280239226946
H 1.3499074193953355 0.1468886915480425 -0.22800400242573987
H 3.0351054242973903 -1.6924885585216105 -0.35777931785937067
H 2.4777391678638154 -0.5213625735134446 -2.972450233397828
H 1.374868948684287 -1.306522114064761 -2.0778700868327338
H 4.666260296443516 0.2500945978793753 -2.0881904733381758
H 5.365026428465108 -2.0054474502989943 -0.16465409089412766
H 7.058154971266911 -0.09083625000165163 -1.9194243119399967
H 7.462274252113129 -1.7996612364532407 -1.6317232381344329
H 7.537248081352634 -0.6444969222125556 -0.30469992699182347