20

C 2.80581609687828 -0.5711146107797086 -1.5429283621510255
C 2.3833791203272576 -0.034635000323053 -0.17933514263742575
C 2.877915688102474 -0.8470302872508458 1.0181356575259666
N 2.3842679930121946 -2.21917219734847 1.0813703123366374
C 4.410418397400518 -0.8952831639691161 1.1309215838166382
C 5.040800680628505 0.4516846277150634 1.2545413691388982
C 6.006215918226342 0.9206335272693073 0.4708880980932908
H 2.351094650447627 0.026782399139958914 -2.336167794687292
H 2.4730919201963295 -1.5986680365233528 -1.6835163182599808
H 3.883141309632286 -0.5369541134641203 -1.6765178258376907
H 1.2975092319786927 0.006818419627194436 -0.12409949973218773
H 2.741713770709333 0.9931424006038371 -0.07219946044349651
H 2.5164383036310687 -0.3457516795187153 1.918679277840807
H 2.7311914407627156 -2.758210192746743 0.30493199526692455
H 1.3737580647564591 -2.225753639472956 1.0186203325785042
H 4.834513073876818 -1.4286854891280207 0.26901781631773247
H 4.640498516826418 -1.4962894513033096 2.0169650954098564
H 4.682399648494442 1.0733820496910516 2.073216744684947
H 6.406522697183895 0.33981831774678595 -0.3467000922195222
H 6.42990631481615 1.9038901418532366 0.6334185491183342