18

C 1.117039303195915 -0.2789877209600417 -0.20272432108802974
C 2.6233371150776175 -0.3067825432552744 -0.009684274060572293
C 3.0754526401564104 0.020529160302722217 1.4075055485875965
N 2.620423277768629 -0.9058177464969079 2.4380427918006617
C 4.60209695640557 0.10739272800980532 1.512152271083115
C 5.202422950839299 1.129063633356356 0.6811201326568049
C 5.687765809520043 1.9921227887016035 -0.005001906736687059
H 0.8440580537432102 -0.4994638853152868 -1.2340642607092542
H 0.7098005400532036 0.698090571327629 0.04796984359738275
H 0.613329590185106 -1.0265104674200725 0.4269690367667394
H 3.0880775000960723 0.3988330720730929 -0.7027451531613836
H 3.0108733879659 -1.3010303162376347 -0.2772643061354137
H 2.6761200773560194 1.0095705964824775 1.6676384904185295
H 2.875258093752105 -1.8496792493948426 2.1900902627313292
H 1.6083577065015824 -0.8894381688569564 2.507133644901176
H 5.024387912181284 -0.8760552456077658 1.2452652981065353
H 4.859480991694166 0.2796122601454978 2.5538125341775264
H 6.121488569257347 2.751214467124239 -0.6117354725637038