22

C 1.007934248799935 0.32718909680413205 -0.331608096223966
C 2.4768156879872305 0.13461883917148532 0.0318719738363072
C 2.8777272047017917 0.9164860347418843 1.2610228050917807
N 4.2712891779777244 0.68807647753588 1.5910407319599509
C 4.800285652280844 1.5177967765818483 2.661827667186358
C 4.2445303673072114 1.0834438957652541 4.010075653625966
C 6.320690194148075 1.4152405945753228 2.652203464462692
H 0.7459773462904642 -0.2504998513227671 -1.2229042668920056
H 0.7814317757091442 1.378571373378542 -0.5286355031018596
H 0.3549922061803054 -0.012460169706348464 0.47853602600591305
H 3.106278669760172 0.4427997225041725 -0.8163870319949847
H 2.6914998773642163 -0.9329272162458265 0.19483743097932302
H 2.25774039908536 0.5903312211400058 2.0991997098039685
H 2.6600615254903244 1.9903830659599007 1.1057851837669554
H 4.830941059187741 0.8259592601206717 0.7600858961996867
H 4.522799803493831 2.576288847062712 2.5110806606936156
H 4.508588323881044 0.03223207449005399 4.198915175814165
H 3.158229867278115 1.1777126933478534 4.055178759812336
H 4.658114475943232 1.696460803988845 4.81377040861127
H 6.637961951130002 0.38616384569694406 2.7994817659074056
H 6.75336138131038 2.0369878531656145 3.4407627907366725
H 6.726791676804109 1.7642291738255598 1.6941016668618865