15

C 1.3914688954223458 -0.7344971501413443 0.762365114167706
C 2.295644291849194 -0.07950153151461505 0.05999504541137269
C 2.9982678292537255 -0.6334519453907614 -1.1317540442618113
N 4.437499087547717 -0.5920307802432945 -0.9425326603505925
C 5.202131592509665 -1.0487464760609893 -2.084941160558129
C 4.948973615143137 -2.441053358333588 -2.48633792055107
N 4.728713186748075 -3.5351190409298656 -2.747827802984473
H 0.8993731900335108 -0.28887554793504033 1.619700777178539
H 1.0863821751187939 -1.7468389892089853 0.4985330670713313
H 2.5918736598211387 0.927578272222802 0.35050778713584585
H 2.7663465413059507 -0.021501388857041507 -2.0150837345130013
H 2.614924049260123 -1.6519400825509023 -1.3451658656245347
H 4.692748860228633 -1.1186324043662101 -0.12373537046420174
H 6.262193163074691 -0.9358573230205064 -1.8735745322056259
H 4.977129867047352 -0.40819949092142255 -2.944213190480434