21

C 0.8233839584405827 0.2759804158288324 0.025009527857703124
C 2.3495894276382567 0.2990576899506391 -0.0033013069383548807
C 2.8213644015564094 0.5591375532825535 -1.4293228105533387
N 2.7786808428577165 1.3515123919079357 0.9216378393564651
C 2.9406193521890214 -1.0257954756982453 0.4747871973163388
C 2.5568112734279627 -1.4705846248976024 1.8736834857194338
N 3.360145127387092 -2.6275642197097184 2.267069236690401
H 0.41997149293828356 1.2116388333615364 -0.37618058387280306
H 0.4507417307615108 0.16275481837940975 1.0393458835151939
H 0.437721587007885 -0.546127696505073 -0.5907278099872992
H 2.438753111201873 1.5192139936306772 -1.8013185861364605
H 2.4841292474675174 -0.21564596675416423 -2.1157432394333755
H 3.9100103607799848 0.5946753727284335 -1.4796217858342926
H 2.3993120963175123 2.2510015618790384 0.6304377311100056
H 3.7957411871931397 1.4369682134201327 0.8905633743815288
H 4.034415758168134 -0.9547299770789035 0.43964766078530443
H 2.672365938742481 -1.8050709678102919 -0.24161502299790746
H 1.4789915616926106 -1.653372145236442 1.9205318521205659
H 2.769469953157744 -0.6561380959030808 2.5747560391166537
H 3.139027795638738 -3.420915923773959 1.678541032861036
H 3.1393707244364655 -2.9033159041993244 3.2106328930583556