21

C 1.0061490578468129 0.29651953612223164 0.07158735828781694
C 2.410842974797044 -0.27646876586422936 0.20977827189940637
C 2.5594945773282385 -1.0512203863945062 1.5086176978993364
N 1.7498687066878917 -2.261218782943647 1.5248983922723984
C 2.7768444094116758 -1.0839336854330548 -1.0348266222641274
C 4.205651629410432 -1.5928498011072747 -1.0746581042442989
N 4.476575794172006 -2.2002119296097087 -2.3737459683207653
H 0.7301059980139277 0.8890415069394685 0.9527435032610926
H 0.2641435986511333 -0.49776164492221736 -0.04835187266168562
H 0.9249085675300078 0.945784301226063 -0.803605488575929
H 3.111747757586104 0.5713061863327812 0.27705507806630725
H 2.3391239338962637 -0.36734709852411274 2.3462912563271123
H 3.6044343756023496 -1.3571002387859041 1.6326393935466026
H 0.7656220772372712 -2.026921981228548 1.6034546651804842
H 1.969635823405179 -2.8325283686860905 2.332474957103067
H 2.59953900869043 -0.4760139209575303 -1.9193801455296295
H 2.0980578881017027 -1.9398508697990593 -1.0988111836935766
H 4.384661956671984 -2.2637818598119606 -0.23354390696812305
H 4.8942307925870105 -0.7399079931706118 -0.9576172026159249
H 3.8607471026523 -2.99569466958067 -2.508338097012134
H 5.4279521154332695 -2.5664829580505253 -2.392957724875309