21

C 0.7915936892023339 0.17959930430220328 0.22679382590532682
C 2.1178448044881284 -0.18544544112531997 -0.409980933663269
C 2.753805505446074 -1.4551125840688206 0.15786520936796436
N 1.9332957865601401 -2.655793530714273 0.03760646461139556
C 4.116299269755986 -1.710961593438679 -0.47779150433821355
C 4.933104430911106 -2.786603731114492 0.21546312965754058
N 6.219031985314266 -2.9646309359723513 -0.46568666567015915
H 0.39068327970621547 1.1063441327640329 -0.182825581183914
H 0.9006897044535284 0.31545925085576887 1.3075594084008684
H 0.030727493831681142 -0.5916722267800016 0.06297983824795304
H 2.8190326533589114 0.6423394320910479 -0.2920266636364225
H 1.9830087321726462 -0.3257628103440576 -1.4951335448526994
H 2.9143875213526234 -1.3006159250997391 1.2346294664441975
H 1.686960847358987 -2.811966098430001 -0.9325504599111667
H 1.0711100679402306 -2.5547551702486713 0.5523848824578884
H 4.693762881209572 -0.783758529937849 -0.5069577369509116
H 3.961131980333765 -1.9991820186749618 -1.5308833962894848
H 4.336158371829379 -3.702082963349782 0.29172354063333966
H 5.143320905166751 -2.4594803487368297 1.2333922883818096
H 6.064444845854849 -3.3223105098882675 -1.4019511099542399
H 6.778897421717076 -3.6517274193243945 0.016241490842147373