17

C 0.4152998402281905 0.2812355334219994 0.035671110721259155
C 1.9279357209988695 0.297565290658016 -0.010640895277854988
C 2.507325001032287 -0.9411228800050333 -0.6606984236359208
N 3.9566718442813436 -0.8736605607802056 -0.7209479543771633
C 4.587165099441375 -2.025116964796804 -1.3073985018551384
C 4.356708677179988 -3.291887771549774 -0.5943308619713927
N 4.153976252096528 -4.255285010722775 0.008204209095936235
H 0.012672190794031394 1.1743421555736657 0.5125354389109382
H 0.04301701356750563 -0.5908312273880593 0.5949131994446043
H -0.01624174376505988 0.2235086593451193 -0.971960981224132
H 2.319341543013408 0.392711746426988 1.006753314453615
H 2.2768500509047325 1.175027563696434 -0.5617644212124031
H 2.1312836335730174 -1.0254016614565111 -1.689904957445669
H 2.1497207763223427 -1.8328993112741023 -0.12568069542228158
H 4.3326538797548215 -0.6988177075423911 0.20262209341809218
H 5.6683473680843965 -1.8622127814551162 -1.3660902484830504
H 4.232201255234588 -2.153200492736719 -2.3406954032265768