19

C 1.9462178586738639 1.3259361260548548 -0.7466869968705375
C 2.2644544941244527 0.094948784718611 0.092698981908548
C 2.9509526074615056 0.4506021739371851 1.3824070975693319
N 2.169898872440654 0.9271565479094898 2.4024931581680256
C 0.7410045092328047 0.7801506922765079 2.494127256223162
N 4.221692694443518 0.34080777533318984 1.4339757479017299
C 4.8827443101976735 0.7233869498832803 2.6593247911526063
H 1.4773980359895216 1.0444743771899956 -1.6869419363578932
H 2.8691295299393693 1.8693454582364488 -0.9727853688281927
H 1.2745082007504112 2.0242611093062033 -0.2315162035323338
H 2.9477230847155336 -0.5509609362924521 -0.4430494547177877
H 1.35068311171821 -0.4740997368730968 0.28725073688647995
H 2.653482174921903 1.0592073788922793 3.2842608289894146
H 0.24631787348191464 1.162908199507095 1.6041289462956858
H 0.37983120806149934 1.3655952948625236 3.342374068502031
H 0.42005189465227166 -0.26405718797492395 2.6384956675801257
H 5.953457639130439 0.5521186919522599 2.560951436008788
H 4.544657036326892 0.14492337782609208 3.5315119118117604
H 4.7493635618059455 1.789048456936605 2.895551157900391