14

C 0.9122368182152386 -0.07444640670583046 -0.08239313702728886
C 2.4144227332459653 -0.051617406860614605 -0.011060734285735518
C 3.1672260829129186 -0.39054031050799914 -1.150518624840379
N 3.8142876441010762 -0.6678661887687269 -2.072759730244551
C 3.0967725739185283 0.302929848442011 1.1174268678337855
N 2.4833190603403112 0.8148024264903542 2.2266424454567164
N 4.462399189394875 0.18295391050307921 1.237955868524701
H 0.5856018973150396 -0.6860723426004471 -0.9266456613923753
H 0.4801503396615634 0.9145308926651273 -0.2115644415313686
H 0.47308518224434715 -0.5220394300917557 0.820289109149269
H 1.4781154645852717 0.8070127107720226 2.216983638965046
H 2.8895597831425204 0.5345140447753175 3.1120607934329487
H 4.937073082913428 -0.10309838929562888 0.4006169639023591
H 4.920161522836686 0.9462647213804631 1.7116042994334484