15

C 3.184013792081729 -1.3756369729891833 -0.3706849608133873
C 2.6889429581575084 -0.1427823065990328 -0.4116093384562972
C 3.365765975608515 0.9983398972755824 0.18120398746725128
N 2.862576609878423 2.161054749747664 0.1252582931063507
N 3.6674216613764345 3.1318373293134623 0.7545888164129367
C 3.520520336110562 4.422600024469378 0.06211226785323814
C 2.8219418836668972 4.1806125971598656 1.3289518941070473
H 2.664701614761074 -2.216248328503049 -0.818441907963683
H 4.137886300402435 -1.583825016976032 0.12065788548074204
H 1.7392624868048856 0.06879287996995577 -0.8887254290185684
H 4.328584723141564 0.8300042584912215 0.6862083387346116
H 2.92923274117364 4.414095157535549 -0.8418544801896739
H 4.426597317976238 5.0093954690968 0.03573890294355496
H 1.750003990971864 4.005489430315985 1.2818910046905325
H 3.1967664280420056 4.585931319398485 2.2637394567216544