17

C 0.9983725757204819 -0.024626657018096187 -0.0014952574858466492
C 2.4604270697348354 -0.18011605412800974 0.23607334982243836
C 3.273837662374446 -0.875464347477571 -0.8174445223273856
N 2.9306281488735024 0.30674827996285203 1.3082834076107503
N 4.330365454202927 0.11637878216190539 1.447983340107231
C 4.9208398376695515 1.2265264626135817 2.1974402222059317
C 4.677756000781687 -0.054579961362019626 2.864776315088456
H 0.5272044511332982 -1.0042126686405215 -0.12657394467976424
H 0.8113791757659471 0.5288958791475158 -0.9317100462650998
H 0.5281914098795097 0.4965737910585164 0.8290203389264345
H 2.6451745847057437 -1.1981835619377392 -1.6500353006154533
H 3.7696759624619913 -1.752310374267891 -0.39782732773795787
H 4.065053770315305 -0.22643572824223493 -1.1946957397634486
H 4.241869231080695 2.0427516832908035 2.427053123467828
H 5.909700481922668 1.5170491829523804 1.882939794882181
H 3.8376784736312928 -0.10087837068080273 3.552026834877894
H 5.494784477744787 -0.7467805602317976 3.057921582836497