15

C 0.9357810032107552 0.06663151327563001 -0.0830567085933855
C 2.4581736124251043 0.007227504621095331 -0.03095622569408946
C 3.0230882316537557 0.17773968448464944 -1.3842343221011084
N 3.482260702385044 0.3494908509957077 -2.419999200131498
N 2.9666911272778878 0.9504698655781517 0.9500175594467932
C 4.336207471570721 1.3982941678341063 0.8668602134855851
C 3.2115730541761947 2.3156394688673543 0.5379915147014369
H 0.5415821689409563 -0.6878473897655238 -0.7629488567574022
H 0.6130722946398106 1.0505567163907947 -0.41618258637065775
H 0.5452191019536129 -0.10890293911365545 0.9201875327575578
H 2.7642595516544 -0.994058294292489 0.3030606730892799
H 4.934380017239355 1.061561874183129 0.019286520744965188
H 4.85512787108675 1.486508006713536 1.812590829811499
H 3.0808846054648686 2.5739799031701613 -0.5112600706996923
H 2.8984195585226242 3.0747057726279263 1.248834668179325