19

C 0.620105649541442 0.37493663029957464 0.0796330991528553
C 2.0960696290805707 0.058139842610491814 0.18235954174656885
C 2.9715388292897136 1.21598789347767 -0.2779822841179088
N 2.7851477841696632 1.4772473176140521 -1.6948031145581146
N 2.444471392177909 -0.2562662862358658 1.5534654092966333
C 2.1608319088960544 -1.6107347546725816 1.9930168549921163
C 3.554721822728913 -1.1557599271770795 1.7551240740956127
H 0.3792575828052689 0.6890219281978672 -0.9415623049770422
H 0.36769924985927266 1.188992257326745 0.7592925712224348
H 0.012610972557188165 -0.49687954680720586 0.33001335174554125
H 2.3194192906730726 -0.8095629183057428 -0.46808518944297095
H 4.016118662029883 1.0058041487173948 0.0004144297189033735
H 2.667191002276931 2.105925926329216 0.2718127967167549
H 3.2331807459839514 0.7481586184791282 -2.2547697282280796
H 3.220057591814751 2.350873863189953 -1.9621668342196508
H 1.7413527690116193 -2.294672181257825 1.2628792095401382
H 1.7847345871224034 -1.7151549354859355 3.000460267953502
H 4.050887452438072 -1.5550499711811494 0.8745463872215121
H 4.205695632802654 -0.9368207793234818 2.592366146991162