17

C 2.8198640105350115 -0.16726581952547945 -1.468305243591897
C 2.4691934362520263 -0.025531496732102397 0.004650650041220875
C 2.8531188173276147 -1.246896865629322 0.7519037638256508
N 3.1817752561169845 -2.161675552749613 1.3582791208873461
N 3.0002109359083495 1.180953740774297 0.6112130532792209
C 2.416962879749584 1.4413018223361895 1.9160818529469978
C 4.450397214299324 1.2282311320714765 0.6664417201859901
H 2.2745455418807428 -1.0035216690414435 -1.9069069332286617
H 3.888947079919711 -0.3623936096255058 -1.6119400339580552
H 2.5566804621257906 0.7552531216061017 -1.9847900020613194
H 1.3742073046714143 0.04793475069359294 0.0825950704426448
H 1.3351112523791502 1.4737694984425618 1.837667988320674
H 2.760397445472812 2.4192909526682516 2.2626818886609334
H 2.695493446270261 0.687923858962816 2.6710449333833406
H 4.870062822414022 1.1200193712406468 -0.3361886025762321
H 4.884491878714636 0.44496236138553336 1.3117609102263383
H 4.752172470453069 2.1965682261747865 1.0559103381907469