21

C 0.9915974675068847 -0.11476629066630617 0.4643122731072954
C 2.3601256798076586 -0.24486228337318772 -0.20951214668611465
C 2.6706503574904277 -1.709586910147864 -0.5284468745965338
N 2.8387746724553597 -2.4745153764208654 0.6907909717731837
N 2.577674380244587 0.5910106235955364 -1.3743541798488301
C 1.6621823439537018 0.3765634980117605 -2.467445529354446
C 2.6874876547067528 1.999422181976759 -1.0569415437269793
H 0.946306226233392 -0.7727798992494106 1.3250400093463588
H 0.19223649219938915 -0.39110279464013065 -0.22367497773177186
H 0.8019741507959748 0.9103254528621605 0.7944508610819506
H 3.115672646315596 0.07358042995974957 0.5188039712003407
H 3.5404947932123245 -1.7277057459148997 -1.203696553165413
H 1.8310994931498055 -2.148608919191689 -1.0866344445388587
H 3.7181657408967417 -2.2384233319624185 1.1417469059346546
H 2.870545095009385 -3.471382087421037 0.49157724778400946
H 1.623704150387075 -0.683382889176316 -2.738059549566448
H 2.0085316848819517 0.9259803154855512 -3.3485859444987853
H 0.6279653322323226 0.7121413014058645 -2.2591843395983586
H 3.4197115841794132 2.143669574434303 -0.2629131765107184
H 1.7343814399453885 2.4619730550566143 -0.7267977170501558
H 3.0284076741070907 2.54846993098809 -1.9385687256018633