16

C 2.4255127453391268 1.2607963195718128 -0.10567637213698147
C 2.5278279427741848 -0.24433558158154936 0.10620774324309931
N 3.0805158405910906 -0.894450162429363 -1.0701421231096075
C 2.773410646255512 -2.2904971494865896 -1.2336548618058076
C 2.10816042124957 -1.2636089846350715 -2.0898693666290478
C 2.456670971134647 -1.0833485818257855 -3.4651244588168923
C 2.718600499506994 -0.9399194932881334 -4.630379999764388
H 2.033205536370197 1.7418924928875552 0.7962876118952922
H 1.7529184790910048 1.4888674163981108 -0.9305857553944955
H 3.404937740206757 1.680804521304254 -0.3335251141700493
H 1.5368193332151705 -0.6614223675766501 0.36705952350363147
H 3.1974914966134595 -0.4553831522119125 0.9430857262519194
H 2.148702978428514 -2.769777925309226 -0.4771189728384732
H 3.5639423845993266 -2.9070771632910395 -1.65178376638591
H 1.0642059370724803 -1.0717710886316032 -1.8558845423909411
H 2.961525983121422 -0.8019606536129916 -5.660597191778933