19

C 2.6317460660392435 0.8596337428733629 0.8977289181828151
C 1.9635140507889635 0.19066520340855328 -0.2820452080566832
N 2.828304194011253 0.23883540318399538 -1.4547900128309568
C 2.1603383618749317 0.14470096817135514 -2.7390595421093575
C 2.726134995645195 1.4269989138496775 -2.266445928407382
C 3.9999763177174854 2.0012125640674636 -2.8306662935032305
N 3.691557263125576 2.8702583213483797 -3.957839910725285
H 1.9986850325040544 0.7921405815340075 1.7873929879955912
H 2.8204060175519268 1.9182255833755106 0.7066980756428445
H 3.5810328359140056 0.37491578084681626 1.1267697623505306
H 0.9889153528561364 0.6741028477973499 -0.4923802457090763
H 1.7615619281944708 -0.8610513103932607 -0.06759667491569091
H 1.0795265063652897 0.040653345268843025 -2.7427208681626625
H 2.6916555137504603 -0.4413581723344639 -3.490835631275475
H 1.994344918295337 2.181835288434671 -1.960918439409918
H 4.670593327496362 1.1583240334767726 -3.0720999521531347
H 4.49400013677644 2.5953793375096157 -2.068140797564138
H 3.2898895388009044 2.3343684600751495 -4.719217590035235
H 4.5395933586572195 3.3060762111103057 -4.311348308257277