15

C 3.4001226140114844 -0.4843128697709997 0.5802833575152163
C 2.2902709933216294 0.14117693302141665 -0.25098407618571406
N 2.8380508233120585 0.969742521272134 -1.3046166265503236
C 1.9881259150172683 2.0049540619407242 -1.828293312114029
C 3.129740845403963 2.3447654006039316 -0.9307684837087775
C 4.346628375522508 2.9330081704787063 -1.4328429990454534
N 5.2964843993817565 3.426105668612459 -1.8338311978664932
H 2.975185952429816 -1.1413582804816884 1.3470548703051741
H 3.9968391781558377 0.27580873620588364 1.0694907966962246
H 4.059682420064043 -1.0850938953106015 -0.05933589650063727
H 1.6089816176478033 0.7166485399595616 0.40283702147557177
H 1.6973854451202826 -0.6420045010115764 -0.7316521337487296
H 1.002318599733405 2.1295626181430207 -1.3937534579868087
H 2.076011593123194 2.2088220725201286 -2.8848053576945754
H 2.872830212043797 2.654891455785833 0.08005737679820377