20

C 1.1898517075792632 0.062257803072155976 0.13394047004162282
C 2.6895157519889086 -0.11081178450345136 0.027702297006741608
N 3.097953679551356 -0.840539175135549 -1.1499491105783066
C 4.5393859690421134 -1.0558603758601706 -1.3250226133022147
C 4.226202220417122 -2.4490798141007404 -1.8930632529455222
C 2.8460449518489463 -2.2909233936053366 -1.2315793462827123
C 1.6248168363585536 -2.7321635976132215 -2.00808506200682
H 0.9373108842753806 0.6754811706332882 1.0011022155488452
H 0.6871214637400905 -0.9021774146680944 0.2588885152595825
H 0.7971844716311186 0.5427909305182885 -0.7671403931707681
H 3.078451183724771 -0.6020275279509406 0.9428340814598597
H 3.1746399822114317 0.8740984032789892 -0.023010133486029368
H 5.068812397297015 -1.1175236584071928 -0.36446620372831917
H 5.0423610250737125 -0.3346710396166644 -1.9693239312378519
H 4.850680334037324 -3.2830004032053943 -1.5601681215999035
H 4.153086689605439 -2.452072849725726 -2.982605508987068
H 2.8495840862657342 -2.744877357683574 -0.23143153888826284
H 1.6169500099776741 -2.254206125495364 -2.9927699535777426
H 0.6986561699514153 -2.476500286837926 -1.4896927104498139
H 1.6389346694238773 -3.813597805152038 -2.1465374787308047