16

C 0.9463058996933555 -0.3768373022366867 -0.08304216578328219
C 2.429158563810891 -0.04149671645298143 -0.06286314374545299
N 2.928862987399843 0.3795818930841809 -1.360730054641574
C 2.9081643729010747 1.6492904573597644 -1.847882422003102
C 3.3684994906180963 1.6304091495011124 -3.137207870616289
C 3.6832195593007797 0.28866372125336415 -3.4438528123568615
C 3.3932968584027625 -0.46289936809509674 -2.333214066073468
H 0.6142159132680665 -0.6844976929536158 0.921944682899907
H 0.7378165701565399 -1.1942477503232987 -0.7752532547171784
H 0.3470555703267743 0.4844499360700858 -0.38235172159849395
H 3.013285392357872 -0.8975515161290343 0.25803041134081706
H 2.625075680883887 0.7659934276441922 0.6441698068173318
H 2.5666086367531227 2.470000630260403 -1.2236104837169344
H 3.4935995809333735 2.4906623350932646 -3.775058945186674
H 4.088210153763762 -0.0905429190991643 -4.367584545120935
H 3.4871749399270726 -1.5222677692642907 -2.1500533256971828