15

C 1.0872345602321474 0.30706532918499496 -0.5315487235187447
C 2.5035594486955315 -0.08099951423511806 -0.17374158642990425
N 2.9482114162039363 -1.275261794592608 -0.8727415731810639
C 3.8519636196698683 -1.354658562595752 -1.8639489298979508
C 3.9135132978535943 -2.6866396253835725 -2.2385293950912604
C 2.9929636036230325 -3.3195268240956124 -1.3837387070944145
N 2.41298793860657 -2.453302766742851 -0.5704018592146075
H 0.7902674935537153 1.191994596117794 0.031859984606821476
H 0.3978698773217693 -0.5054526462336285 -0.29838407270225686
H 0.9957690012740625 0.5309297358232554 -1.6009805082538406
H 2.587369795941163 -0.2734173183582715 0.894420398003221
H 3.209090162113266 0.711930088425312 -0.4257749678496242
H 4.37544403653459 -0.48399444501561556 -2.227692949139883
H 4.543816678760817 -3.1198210289804993 -2.992983265897321
H 2.7354707094673425 -4.363252466358854 -1.3364345438973935