15

C 1.731669489469921 0.48892679914382736 -0.8625696147849653
C 2.393199334766606 0.0245062985305084 0.1932064296390377
N 2.8506931500488575 0.7269817379655977 1.2884571151860236
C 3.5795236606913354 0.12169331557113047 2.394955688523397
C 3.837161557450331 1.3457187110210922 3.298097898707769
N 3.24846771791367 2.5042492886225145 2.62498704411287
C 2.735496994370216 2.072034834192844 1.5372981936292105
H 1.434989924378274 -0.1947155128871127 -1.6475724195308337
H 1.4582461743446415 1.539743367651397 -0.9866251241106232
H 2.632652534723743 -1.0362495030257413 0.24836442647401286
H 4.499131757464535 -0.3490069385254253 2.053452165194229
H 2.965523712957039 -0.640119153897374 2.8924203595256404
H 4.898477603785005 1.5269229310762187 3.460357853925876
H 3.380477377056101 1.2319501061971412 4.290501373528116
H 2.225418803396855 2.7059363444544697 0.8221218176047587