19

C 2.5338737495615766 -1.0165588809586321 0.9257294352779851
C 2.365388449412157 0.09049443234371003 -0.1003214272225503
N 3.053969928349551 1.295869776666733 0.3055238741527226
C 2.946117738924715 2.48091350998181 -0.5540071855168132
C 2.9296329015441915 3.3661944219365076 0.7041846575976232
N 4.222988815327842 3.9308693120842646 0.9903955919278613
C 2.525886007498573 2.066220686254893 1.4356249444000668
H 2.0199985986294755 -1.9206863402049914 0.5876388236648694
H 2.1115611707922106 -0.7329831337243823 1.883210225456487
H 3.5908881156621013 -1.2477942052012407 1.0658599255697265
H 1.2947693318778275 0.2904954183056112 -0.2611768779052736
H 2.786198008483696 -0.22113348893652668 -1.0627330498903127
H 1.9972042853779026 2.5216455273437233 -1.1071093137855772
H 3.7725584801213343 2.628424276440164 -1.2555441131647658
H 2.1828373960766525 4.157477982364953 0.7074220743842456
H 4.925658796467659 3.199993588058964 1.0065402572012845
H 4.226904829959144 4.3665825416297785 1.9039257413841875
H 1.4273843839507832 1.9786576203972197 1.544269916138475
H 2.997313947016689 1.8658714708336934 2.407341277986745