20

C 1.8795631890870443 2.498891319690726 0.3373598369980865
C 3.1738055011186206 2.285779769519198 -0.4093423589421762
N 3.8025797259796152 1.0397833229816689 -0.025756697429284273
C 5.0245079913415545 0.7663522308451488 -0.718718494881294
C 6.28888681041859 1.307708618843034 -0.12957945902756005
C 6.0086710785110045 -0.162932294158355 -0.08849373035190786
C 6.808656646847358 -1.1207034306442565 -0.923160741131094
H 1.411400428183497 3.449536718310717 0.06013842437501074
H 2.0445901149936425 2.488677639554249 1.4152761980735873
H 1.1506174434683911 1.7080529551387889 0.096881139661019
H 3.8794120257563742 3.1021914173058778 -0.17629798818915218
H 2.9934086568537683 2.3446387567300455 -1.5032904841141295
H 3.1492901317833795 0.2731431354746444 -0.15683444555658418
H 4.984872728936343 0.7472907795540155 -1.8148488762176302
H 6.196646963589302 1.8624324787968523 0.7957806118727206
H 7.065631897692031 1.657769721413751 -0.8002753043719051
H 5.691930662365024 -0.5354811815815955 0.8846762851923264
H 7.056586677060791 -0.6836333852843419 -1.8911764352505538
H 6.251661742110197 -2.0426963456507305 -1.11810039142176
H 7.742743693223486 -1.3979824463990347 -0.4213366485967621