19

C 1.2412257419454482 0.21289754827916083 0.7478646745793418
C 2.7293115024980157 0.5002549885422729 0.7934942857834946
N 3.2734333450313136 0.6233131373452472 -0.5436073336981082
C 4.667664390912796 0.9045310883293609 -0.5889425973145508
C 5.622208845134745 -0.2609153636017212 -0.5163773516468773
C 5.455719313851068 0.4865998044068781 -1.7996825597582573
N 6.564448481486686 1.2332454769036254 -2.326993534705018
H 0.837151722430051 0.09550486791855321 1.7524135171511666
H 1.0431135161135372 -0.7039931861155854 0.18306695976227474
H 0.7015025489866946 1.0342272817240192 0.268373232950413
H 3.252895002518156 -0.32883024600797506 1.2945082890381694
H 2.920038380934316 1.3954357329074492 1.409175184967189
H 2.75280933704845 1.3154143079812801 -1.0701078853929553
H 5.023939610079358 1.8232446492542862 -0.09179068110030353
H 5.180660354357342 -1.251113020862211 -0.44244622255694394
H 6.548782241544098 -0.12321298807599175 0.03136995697778327
H 4.878301545959666 -0.025015493772610975 -2.5559714903304007
H 7.225585712611048 1.4703617544834364 -1.6006788548298385
H 6.2507184182768345 2.1007180077710093 -2.752913637767474