20

C 2.702668811170157 -1.6157673902735339 -0.11846268728510276
C 2.5954662204157017 -0.098491988082563 -0.007092019758132114
N 3.2703348892649253 0.4561463629901654 1.1530736894171578
C 3.072702896503384 0.5713200028223235 -1.2854099047888732
C 3.030986552114501 2.1060824371230162 -1.4105316555261254
C 4.342445149954041 2.0419925063415305 -2.215676547235751
C 4.585805943462778 0.6379952242469382 -1.6125926790937581
H 2.335243296202403 -2.0968796351321224 0.795901510889896
H 3.7404432189173957 -1.9188168207222542 -0.2539525134555766
H 2.1287304099790134 -2.001796267684457 -0.9595711409258436
H 1.5322410119179055 0.16620179980724725 0.10724501375385585
H 4.224924607062715 0.10922667278025018 1.2040290271419571
H 2.8199344580471224 0.16209215261984677 2.0067149382396194
H 2.551986974300372 0.12139317305237735 -2.1317616075371455
H 3.1799096649175067 2.5684154561351473 -0.4388357597598721
H 2.1571275061268307 2.5542255167435863 -1.8940126713204908
H 5.089210084126723 2.8114470468265553 -2.041373169410957
H 4.1473165392462015 1.9763186129603962 -3.291895897802943
H 5.192089511423999 0.7243183975320785 -0.7039868830307897
H 5.008593326595931 -0.13085318957446324 -2.250159624321459