20

C 1.0030926175019605 0.4149840888567774 0.21484183700573864
C 2.4723225230927093 0.031476536702240654 0.0539192819832646
N 2.766525351207225 -1.342187941080064 0.4858454942308642
C 3.043349443331056 0.2063078103556427 -1.3475948969936689
C 4.547526988722443 0.14514407126663253 -1.3931581846429613
C 2.304773805607233 -0.39676592617462897 -2.5067958444073706
C 2.3659392913312836 1.0953790015556284 -2.34699251928761
H 0.6816432791964673 0.2098902505185709 1.2424304421259031
H 0.36205035248307765 -0.16841467482403868 -0.4471460203977267
H 0.8287452311109682 1.476667904134329 0.0296853467638443
H 3.0575487283127742 0.6803569729048575 0.7130660557150562
H 2.2649393135164364 -1.999143040608624 -0.11384288900877272
H 2.435238925543432 -1.490641686746864 1.4274418053203095
H 4.906189276712293 -0.781007880725395 -0.9460666728219944
H 4.978685950565376 0.9850393531260991 -0.8331497074927049
H 4.906462560705022 0.20391136886520203 -2.423190994077759
H 1.3441032903868304 -0.8697826023514812 -2.336990474403603
H 2.895979862199602 -0.8515203027153733 -3.2940281696751748
H 1.4490279654440952 1.6100888274121474 -2.070820018394752
H 3.0038063402559287 1.6559639117787768 -3.01329634794386