19

C 2.382718854344209 0.5621798592644675 -1.4285547651292518
C 2.4325147087621986 -0.024389760778016873 -0.022732616703518324
N 1.116875633323981 -0.3259460603198453 0.5188013873459695
C 3.3275550509591785 -1.2622109700692725 0.021319630882746705
C 3.526524937317559 -1.9759167595551972 1.3618550485625882
C 3.2436405742849534 -3.274320859722573 0.5909314486399303
N 2.793339588838825 -2.5003445483871345 -0.5992465482019461
H 1.7650599717778566 1.467329111378642 -1.4512258014762704
H 1.9526523117598822 -0.1540738311688902 -2.131110604825587
H 3.3798840257875087 0.8235884023518358 -1.7883233049515666
H 2.9040403097824576 0.7059834490272742 0.6435706915722044
H 0.4686270154659281 -0.5897850022472807 -0.21537059967983532
H 0.7162258196671485 0.48623353709131034 0.9731552308695933
H 4.286170981117245 -1.0062678623195815 -0.45835012987435086
H 2.7295964396662065 -1.71978841427154 2.0675106840507436
H 4.5000461328443135 -1.8711634426975963 1.851010260630061
H 2.489566411190101 -3.93837782667544 1.0177655375729224
H 4.139521927348828 -3.855583214792744 0.370716313161577
H 1.7854716712828687 -2.464910827471392 -0.5855527441918592