19

C 0.9177733742157134 0.24110485475111793 -0.14795273799829636
C 2.3681609974162123 0.2749726713556875 -0.5835950130563862
N 3.079383853666908 -0.8953816850730749 -0.09397521822930448
C 4.457695290965619 -0.9376416802779965 -0.5176249254295261
C 5.4506635044197465 -0.042364447486504746 0.23054162589425162
N 6.405342011592068 -1.1728788334817724 0.24123655487511492
C 5.300742020789997 -2.1179847336127757 -0.007129287716496723
H 0.38429122739803717 1.13867074831939 -0.49839349189174353
H 0.8389409649670507 0.18798145093600307 0.9391470043998976
H 0.3997393101728455 -0.623816512350709 -0.5727985668042443
H 2.8511792422054465 1.1576047065741093 -0.16616169329017927
H 2.4243760018893057 0.3722420882586323 -1.6848606479043415
H 2.6000991861753637 -1.7358463626402136 -0.40666947004489873
H 4.569443446049371 -0.8059702381793207 -1.6086303936417767
H 5.051963424112867 0.22046660070859447 1.2147733754803862
H 5.820831204888988 0.8584287650120859 -0.2645454420924814
H 6.903552680027167 -1.3148322769101337 1.1069179898993637
H 4.848386752027767 -2.536132036741759 0.8987868128021325
H 5.534188867597039 -2.9178783455369177 -0.7163388711360116