19

C 1.005947121037734 0.2452577995407274 -0.14437201575776099
C 2.476255642876211 -0.11709659719250366 0.09191692488360428
N 2.7358903133053687 -0.6401253015976992 1.434777731995817
C 2.9703158699986227 -1.0675219035335954 -0.9749571776176744
C 4.413785460445587 -1.5956001702286438 -0.9076330897680055
N 3.929845285614552 -2.9127605781077692 -1.3344183877404465
C 2.5551741892901694 -2.558976461772966 -0.9466791031679201
H 0.6495158682066164 0.9609024745282955 0.6012174854218062
H 0.37817858599806525 -0.6452858629194235 -0.08811221543637604
H 0.861666015323051 0.6966436066070424 -1.1351625736307218
H 3.068131290111581 0.7995148741692852 0.007967878550789342
H 2.073069457989716 -1.3746321063456948 1.6465152692798595
H 2.585707172557801 0.09285191335120951 2.126175762876251
H 2.7702349653570297 -0.6499368871552117 -1.9601420563487255
H 4.799896539356165 -1.5661297859266285 0.12748745610597026
H 5.148988202986455 -1.1382438682955947 -1.5848981737915167
H 4.328944772182203 -3.7011506861963412 -0.8290506774360381
H 2.28068163004665 -2.8942445118348177 0.06454377149381722
H 1.785585362345808 -2.879122157695677 -1.642751016911508