19

C 1.2814809627603796 0.153272069337031 -1.430802826986353
C 2.1988583677675018 -0.002071975555704514 -0.22876703811901547
N 3.1947725993463982 -1.0694465235599495 -0.38850181089677577
C 2.9617660297972686 1.2519311493786673 0.1892717505331285
N 3.681643034081973 1.1365575741654221 1.4262366950965615
C 3.6420131331171244 2.0845766043803935 -0.8530175178180337
C 2.4526498318662813 2.6260095700634483 -0.11326058752617424
H 0.7951207639401148 -0.8008435181535976 -1.6494879541997314
H 1.8286474683300964 0.45738478003599414 -2.3290853802489977
H 0.4848561789670926 0.8884051506303314 -1.2534333628871814
H 1.5843906755108588 -0.28943689454819954 0.626961288934032
H 3.760799318396397 -0.8789784036123014 -1.203815039980332
H 2.735173709791004 -1.9572828633090653 -0.5439235949238402
H 4.188475119648497 0.25851746587580904 1.415048591634919
H 3.031698386452364 1.0955186248744948 2.2027021126785544
H 3.5029830801028377 1.8432799839792424 -1.901424124200493
H 4.620824596869481 2.4820217936072386 -0.5926271921814296
H 1.5223926368195126 2.7379965600056213 -0.6514058122800075
H 2.6387878998178076 3.3744801450688224 0.6461031597317894