20

C 1.1795650263643656 -0.3091358373558628 0.17993262217141562
C 2.6521478623644477 -0.009833643410923996 -0.014132783501965637
N 3.01296065485645 -0.10930781914004378 -1.4185101226383838
C 4.400824597005605 0.22399783471909607 -1.6796170582046235
C 4.705511258836359 0.17725849506551575 -3.1485779283133626
C 4.449400421380397 1.3907193957911357 -3.9906534627715846
C 5.852597771072989 0.9479628335519481 -3.6914367520129105
H 0.912490967766922 -0.27478020259923863 1.2408069484783693
H 0.9330725166957844 -1.3002844899063561 -0.19749250012013722
H 0.5491131432865501 0.41778993857977476 -0.3457797285601199
H 3.2479803015183935 -0.7388714848881007 0.5347828546680649
H 2.886016183591296 0.9765230995703207 0.415586216026455
H 2.4260121189973938 0.49718599625731347 -1.9694811268670809
H 5.023039235814342 -0.5068644319323057 -1.1487660804164082
H 4.6892474347077995 1.2173874056384164 -1.285690218287872
H 4.49884651650576 -0.7889227893688607 -3.6109842673263017
H 4.092954207390529 2.2848914137799543 -3.4882830887935423
H 4.075124557990343 1.2488168733757619 -4.998292060358317
H 6.431846749381599 1.5493489493499317 -2.9976992744179447
H 6.438259079399198 0.5117867571675353 -4.495217429383084