20

C 2.5845781009322244 1.0875832417957327 1.2170083879005609
C 2.3616998601924437 0.8493622908644793 -0.26521849353125554
N 3.148641314702233 -0.2513192375947836 -0.8087391039715781
C 2.705868976849381 -0.5661910497312074 -2.152584313321401
C 4.548397229260284 0.002255498322342875 -0.7849295517483983
C 5.3517087791075255 -0.41995933014339687 0.40508315171564513
C 5.475982601853051 -1.167761888405101 -0.8871090410238356
H 1.8987439978385596 1.8700968608530497 1.569293390472827
H 3.5979226060551412 1.4263182672820454 1.42747759625355
H 2.402152641511608 0.18760278905707353 1.7927835118747102
H 2.5463958712613084 1.779792407962176 -0.8276035405461056
H 1.3042653050868547 0.5971401302871074 -0.42093625454609573
H 1.644868953081648 -0.8461659703933453 -2.141950954906314
H 3.271718568682206 -1.402959205586196 -2.5461855523798547
H 2.8191723486172147 0.28272511084930774 -2.84922140163895
H 4.884743473060213 0.9123342489177607 -1.2840303001290756
H 4.815007098585333 -0.9107829131835434 1.2105492727263227
H 6.177341509499684 0.20726740609380512 0.7181190801234533
H 5.016454467072529 -2.145039620000505 -0.9299125495346258
H 6.381346036365036 -1.0613737348965615 -1.4716639332970125