19

C 0.8352390740535429 -0.5523549181716578 -0.49811455416019484
C 2.3461285254033513 -0.5637197543031848 -0.5984706765701184
N 2.805083901132118 -1.568065646684565 -1.5345130177535617
C 4.240240192829623 -1.5989850811560906 -1.739055338038715
C 4.741185287831397 -2.9490597942628467 -2.17535821914972
C 4.282991868200528 -4.1757058452025255 -1.5012653541912406
N 3.8806043232343796 -3.8901362901946106 -2.8773452216987008
H 0.5000108015643162 0.1952871672903013 0.2296686851873807
H 0.46377562952577067 -1.5274055582998018 -0.20774151059702278
H 0.38829157500226674 -0.28576983356294694 -1.4651018567825187
H 2.7741258245930474 -0.8048339594006171 0.3829564473094107
H 2.710483374041055 0.4444379122270274 -0.8554212034452509
H 2.3362467163702396 -1.4150120875814582 -2.42076989576972
H 4.718153042807671 -1.3313059269740741 -0.7912632905448153
H 4.5710838375339415 -0.8361659990764293 -2.4704437929085197
H 5.766746226506055 -2.9304594243228457 -2.5452338635675957
H 3.531707269940915 -4.065635173263745 -0.7275959929707493
H 4.960940469621411 -5.021770835524561 -1.3827796634529543
H 2.931372276156593 -3.5466001057069017 -2.84786404422288