18

C 0.8266522366822049 0.35736884239696154 0.04591415456884178
C 2.3420320096391603 0.18547691733969493 0.01549304101799125
N 3.0276183893007245 1.3625062110936816 -0.5305140470027196
C 2.8291648344097253 -0.08311632840991617 1.4164693118461766
C 3.8664354710162905 0.5087786704837959 2.008167596577999
C 2.771912112266184 -0.988128128450453 -0.8275087830773257
C 1.988710021376821 -1.911957982551803 -1.3787136262386788
H 0.5679185280625725 1.2384274083063753 0.6493119779261722
H 0.3212175304356033 -0.5067838970260395 0.4859215047958043
H 0.4330754150179198 0.5105041506394326 -0.962749376041232
H 2.76491591240718 2.1856788877400612 -0.002928414502983972
H 2.7405315135298998 1.502937663843237 -1.4920784277511425
H 2.268944814462324 -0.8340697652085266 1.9538987337356502
H 4.4606738702423 1.256134342213255 1.4775807973118045
H 4.146026477008202 0.2543389578057299 3.0154766644651
H 3.855855705014395 -1.0478916038486379 -0.950693277636698
H 0.915065713874265 -1.888212821077011 -1.2782356861839577
H 2.4081085750627005 -2.7215488636739984 -1.9534714236410928