16

C 0.9351025754445862 0.12651277749735215 0.07266728922446344
C 2.4753356781251568 0.0533993556686762 -0.044101756938259455
N 3.122757091400683 -0.3024797220408291 1.2249988233922233
C 2.8212352954186564 -1.0290445157100332 -1.0406456622522324
C 3.3705521604483284 -0.8603202128972193 -2.233496144154542
C 2.9672384554979097 1.3599314698661185 -0.45988272249824114
C 3.3462818438566067 2.4481663407631826 -0.7934559000756999
H 0.5484712316910989 -0.8595445516272354 0.3693398651140997
H 0.47942699634473657 0.3979330889422005 -0.8800206072788594
H 0.652691630080651 0.8564561303769556 0.8256099161885219
H 2.7484825933151775 -1.1784746858570414 1.5651944478574877
H 2.9023441108793824 0.39794086439664367 1.9234418544928444
H 2.563208574751983 -2.036532261027742 -0.6964507710789312
H 3.6545608852467617 0.11914684011873014 -2.5922460637086124
H 3.576127463340243 -1.710686368212051 -2.8736953293042125
H 3.686951756739971 3.418855427502102 -1.0887467262821626