18

C 1.0394278612063743 -0.2400470704602589 0.3120154798661045
C 2.496536033056673 0.11918717200227401 0.01450664418272326
N 3.157186974418736 -0.8059203788954533 -0.8892705508994878
C 2.6057199774374453 1.5492020507300899 -0.47480270138997893
C 3.2013924858918696 1.870849179280638 -1.622579265522561
C 2.04179449944443 2.5705513265038227 0.41895958605714884
C 1.4084365344299574 3.67291941429018 0.04266911846409201
H 0.9797703218418257 -1.250729633658227 0.7229773954651655
H 0.4518761465423266 -0.21351566248044263 -0.6135562229438088
H 0.5724098028839177 0.4445644702003487 1.0210206446300836
H 3.050797333291031 0.08675346766109111 0.9692996802261773
H 2.6178030666027117 -0.8832221773331408 -1.7428996399593357
H 3.170492624311106 -1.731202962806931 -0.4678324660081286
H 3.646521390907352 1.1172280006953044 -2.258200890435331
H 3.3001810023142775 2.9066315794310267 -1.9152055362642078
H 2.1649316621145167 2.3832324599785633 1.483654763882127
H 1.2189374294110036 3.880120884156708 -1.0068242371794258
H 1.048114405348876 4.39647945159684 0.7654282889043164