22

C 3.0466752454631405 -1.1800410943582738 -0.5846579215285067
C 2.5026339453621835 0.10150078745578339 0.03674745959671442
N 1.0424674370597575 0.12204799236733943 0.07425809389148452
C 3.075647875262666 0.42495134108613314 1.4468340279632383
C 2.641875744193839 1.8336686339588606 1.8375128940224854
C 2.5600845564956023 -0.5666973288795452 2.4955501869526113
C 4.60282892806175 0.37585335995098546 1.4129500685028575
H 2.5839546012299843 -1.3337650014380535 -1.5662333047696517
H 2.8118536072839224 -2.0571239180806886 0.03304074177709773
H 4.124699836155802 -1.1447141721843788 -0.7326454754521742
H 2.8029798203004996 0.9419893788860043 -0.5956069833828872
H 0.6893654005237957 -0.730966338291668 0.4784111368943742
H 0.6688897608700664 0.17092997921571082 -0.8653128389605197
H 1.5499711167884804 1.9220761472783783 1.8095207804658284
H 3.0552147578052535 2.5774550578015125 1.153813355022381
H 2.987033854350696 2.0784194119921136 2.8479899499105286
H 1.4714160558304872 -0.49708911617658336 2.6063727440876137
H 3.002208381204552 -0.3496563412183755 3.461554183321225
H 2.817321991299989 -1.6013226755448864 2.244708318955136
H 4.995206823459491 0.9961695508479925 0.6059442752850734
H 4.975983349435907 -0.6411213850055504 1.2670072013354154
H 5.00948194711248 0.7454933797900094 2.354450606451235