16

C 0.8961021491295326 0.02895547157489736 -0.013695758747806874
C 2.4148992821012634 -0.11100653913349202 0.08007053702377463
N 2.910920721888576 -0.5779475128309386 1.3735335331489236
C 2.912452220326203 -0.9796969031555669 -0.972807339271091
C 3.306951982660914 -1.7207494954194955 -1.8456768198731814
C 3.7474372485772784 -2.565094706772637 -2.8975379277469826
C 4.7278505527785155 -3.4562087648387156 -2.7835265590821825
H 0.5300096015232632 0.717942387829499 0.7561977820976515
H 0.4131075268882946 -0.9368446442461056 0.1337022149579606
H 0.5881605884737665 0.4175463086308084 -0.9914709498259464
H 2.861038328901929 0.8857791491233078 -0.0807083108883586
H 2.5970688938899444 -1.5245346620767508 1.5336302013703922
H 2.511485628903057 -0.0016792910418241764 2.109413988988991
H 3.2257130892768715 -2.455130742579672 -3.8434446763258956
H 5.263364825259172 -3.595083234125577 -1.8566597004776115
H 5.0064885651002005 -4.073319656715476 -3.632812116107635