14

C 1.0341443839109816 -0.024888534764233153 -0.05393497532486289
C 2.56800884939336 -0.08572368977972179 -0.09319131848294725
N 3.126454987762946 -1.4235923053244344 -0.27046095566138517
C 3.076198749397983 0.8029494140179045 -1.1287392131493499
C 3.462086547941422 1.5367558168972901 -2.010838441199643
C 3.909364485248144 2.371056171534264 -2.993266257649181
C 4.308088331804911 3.1003267175059457 -3.8687687761935923
H 0.6662399420602996 -0.6516662646883375 0.7591667391486303
H 0.6162467646720065 -0.38559430584070115 -0.9921935778187375
H 0.6880503708083975 1.001162451315845 0.12084814234253886
H 2.950475268903933 0.2979346577716528 0.8682719000813391
H 2.850431604187153 -1.7935502913622363 -1.1630450736140794
H 2.7612431462258518 -2.0360631273843794 0.4514167435570885
H 4.649711564558719 3.752409770710937 -4.630830343683294