18

C 0.8050768010255788 0.031938140900155274 0.1989836154511154
C 2.3193878260058307 -0.12765539176566304 0.02244034262286072
N 2.74349989749232 -1.474072767686623 -0.31939396700968603
C 2.838368281154062 0.8496847150010771 -1.0246675366954046
C 4.368100505495722 0.871039917924712 -1.0987729974434117
C 4.867696875360759 1.748180444431363 -2.140993165755824
C 5.258025260726267 2.484745494963072 -3.015033131518019
H 0.4336735273964083 -0.6721853969560667 0.9514419257326985
H 0.29285288109151447 -0.17661845018925165 -0.7440142606713068
H 0.5392107231070524 1.0439883586032612 0.5140718529625666
H 2.798407676117864 0.11995311236582466 0.982657181559953
H 2.26331193280828 -1.781305181869952 -1.1629186013480872
H 2.486178549720568 -2.1319823655960906 0.4075692732068186
H 2.4738330828034907 1.8580195287458718 -0.8024825415908898
H 2.430970303056498 0.5896768720032964 -2.0059171303395975
H 4.725953609401368 -0.14814805469584288 -1.2681832618015743
H 4.785108750329194 1.1826050156732963 -0.13336154169123307
H 5.620804379500178 3.130807011526115 -3.7806767288198824