18

C 1.0296476257603877 -0.06738528458137977 -0.18103007818559308
C 2.537975566181644 -0.10464180398412064 -0.04259381360362302
N 3.143377709050842 1.0463361155589852 -0.7045358088442619
C 4.591605487757808 1.1126829483478309 -0.5989119282517785
C 5.111729327111678 2.2777661164671086 -1.4379678944480345
C 5.08424930310662 1.2152926703888436 0.7798706058059683
C 5.451857435380899 1.3116765791871963 1.9209304747327454
H 0.5857846530180831 -0.9394766471336926 0.28008022993368004
H 0.7383755103450432 -0.0326480262288159 -1.2359255735194674
H 0.6114671488503592 0.8201269221589734 0.30951422169892645
H 2.9401182409350475 -0.9985921761658206 -0.5288664603592811
H 2.8178601847192106 -0.16954997334923488 1.017132616065604
H 2.7450370962340895 1.9001793223155847 -0.32105010169395803
H 4.982636046406371 0.18541205765704147 -1.0213963420188557
H 4.739494228034985 3.2283745001480573 -1.052117868253111
H 4.771502268031573 2.164598855449725 -2.4699274020955957
H 6.204170811278588 2.3135278259318057 -1.4151663319273324
H 5.776902680515097 1.399892069584928 2.9268455754703897