18

C 1.3086025740833702 -0.23216958361412604 0.6163156448040976
C 2.766199911393175 0.09612669123325501 0.35999058008684637
N 3.081059173176317 0.011105087194202454 -1.0492134317162574
C 4.457385687456523 0.379195580253257 -1.3434147391051894
C 4.719519500970156 0.4497054231465881 -2.7717228282617645
C 4.921415562545444 0.526723424043016 -3.954131540486144
C 5.175280195319698 0.6057537694973278 -5.379525410278523
H 1.0731164115579863 -0.19208545995410642 1.6768313332736027
H 1.0697112037432266 -1.2238226589202186 0.2365116747572035
H 0.6535297975301684 0.48675005937718085 0.11311818979778364
H 3.404432590314652 -0.6145612386706296 0.8928586293853116
H 2.9991262985395646 1.0912754283496102 0.7846475438768483
H 2.4604344146897663 0.6092549878074914 -1.588280745078742
H 5.112606520699498 -0.37646397503730084 -0.8828780291732886
H 4.738444201410944 1.3459109159496099 -0.8789652458133261
H 5.9062260327149625 -0.14448389396953168 -5.683734282296419
H 5.568991665308581 1.582571076256487 -5.657638410534085
H 4.2560624747818006 0.4326317842331894 -5.944740648555984