21

C 3.604062121803601 -1.4689584243372666 4.0162240493276
C 4.2234592933119055 -2.2008381119346057 2.8402264398073593
N 3.5831183860584352 -1.8406482641538973 1.5928752630675205
C 4.172506281926349 -2.4572425492876575 0.4153646462157156
C 3.648302560442244 -3.855715348195943 0.17376130048738628
C 2.1834431290989387 -3.878858056267518 -0.22649139510207136
N 2.0019801307623077 -3.2558028237060905 -1.5326251413844463
H 4.07775539890061 -1.7565809837112252 4.950276861324544
H 2.536944757282667 -1.6823074929705795 4.078022189118314
H 3.718363847638701 -0.3842236336789578 3.9002122502209002
H 4.115731359175258 -3.2775532889099686 2.993712169707785
H 5.318633592246938 -2.0097418577161688 2.816938028589527
H 3.584537255716395 -0.8324437481089962 1.5026651948456877
H 5.276631214272601 -2.478380044509264 0.48527382685796205
H 3.9138691701109236 -1.847378915803982 -0.44907330677633606
H 3.778544234107602 -4.472781587971843 1.0706362118985755
H 4.250134408210733 -4.3291336823567335 -0.6153622425399513
H 1.6170270096842358 -3.2875477878086867 0.504010799861029
H 1.802111519699277 -4.904832574547742 -0.17498027518382978
H 2.3530157791850033 -3.8550393710892528 -2.2695390610279293
H 1.011481309911485 -3.1116240814945724 -1.7356036110580497