21

C 0.9312549989115008 -0.22971411787336196 -0.6045547558837974
C 1.8765868762174482 -1.4167391963015812 -0.6454530768642678
N 2.7927361269643605 -1.4647121465758988 0.4789947782467112
C 2.106033752739635 -1.6983945071008995 1.7288288003516938
C 3.838018013263459 -2.4531307172608594 0.2495059648935975
C 5.009350718626243 -2.337405922555007 1.2069840132711793
N 6.071343855079845 -3.2343259788510625 0.7865699870485464
H 0.36755316882786304 -0.17237376168622748 -1.5419092246678596
H 1.4992703561224596 0.7021924660506431 -0.48683990370503555
H 0.20556358789762577 -0.2948832324278848 0.19771839392043591
H 2.483728070536782 -1.356868075070068 -1.5559666844896416
H 1.285450275777627 -2.3529832372594646 -0.7228777905615064
H 1.3684752644973128 -0.9096962997076589 1.9087952668612354
H 2.811994991310569 -1.6771166589018625 2.5570498224119924
H 1.581937733470324 -2.672886691463528 1.7546755845613637
H 4.2164851816345905 -2.298188328462886 -0.7671774847244915
H 3.451390963593922 -3.4870633155971165 0.2847199596940992
H 4.704266827516582 -2.6429632420115627 2.2164955698822117
H 5.3017477504374595 -1.2800566588712619 1.2670147945066539
H 6.486495661876652 -2.9123084260888654 -0.07975783608637241
H 6.807894688954217 -3.2666030992928126 1.4682765513255362