19

C 2.6340588675591365 -0.6650935798141371 -0.8118123326508343
C 2.703191371337351 0.24672180928183252 0.3971414390060391
N 3.3136479773417493 1.5359487191008196 0.13511742802069526
C 2.4568609846896856 2.5248567291960993 -0.46533743266580974
C 4.688875291875397 1.6507895987312746 0.11702365325758314
C 5.251241326688864 2.9974756818638135 -0.23248292096187415
N 5.535846562402552 0.7282398262857059 0.38898913445494687
H 2.1690298677814943 -1.6147052949152707 -0.5438448345811635
H 3.6303666176455347 -0.8805720074797768 -1.2104295333233663
H 2.0427884468223705 -0.2197712670545092 -1.6107590161229104
H 3.2426250322870227 -0.2365332186715968 1.2157491888816492
H 1.694778752920532 0.44544434880102507 0.775260012176024
H 1.478179917783871 2.5015267615999393 0.033536703855467226
H 2.2941712091580975 2.364534154768398 -1.539922888931486
H 2.8632606702695655 3.5271096078856456 -0.3281527546144981
H 4.8881973788721576 3.7759639143226145 0.43576762242340483
H 4.986020965492953 3.2941617057992745 -1.2603578316251876
H 6.334583543000394 2.9334478196234612 -0.15422634364513774
H 5.077361314273856 -0.1612812335139487 0.5956363821533106