21

C 1.2624992687474317 -0.26864493291601677 0.19845681448500094
C 2.6935717390026452 0.20084317868142065 0.33193832398736256
N 3.2775541043921197 -0.2876468103349606 1.5622624451338927
C 4.687103961932883 0.057647106924564276 1.7156665932274673
C 5.189410100700958 -0.24990760907221798 3.1265359675191933
C 4.6476585112580056 0.743568850059728 4.144316635103834
N 4.864757194683255 -1.6411229327659655 3.441140561830504
H 0.8091723561091075 0.11998891490522356 -0.7219945062122131
H 0.6620370850631135 0.06470149652363735 1.0478586311245035
H 1.2056368311274837 -1.3588233060378676 0.15196527212940383
H 2.720677276670741 1.2917285355809123 0.3564821904465446
H 3.268018987894732 -0.10992886255075945 -0.5597824399334878
H 3.2013427706396316 -1.2951204513233534 1.5877873214924467
H 4.795696422490567 1.1239053726140324 1.5167427946931888
H 5.323125026182717 -0.47990743329479013 0.986339867880278
H 6.278574363902312 -0.17628259142518002 3.0963927170040324
H 3.5566479715408432 0.7372964469087608 4.132145906767897
H 4.9825139037203146 1.76164516637749 3.921974472293733
H 4.9850529682064515 0.49468493362942567 5.149487314180278
H 3.890931766864611 -1.7046081428386533 3.7150332041864806
H 5.409893835211277 -1.9513170221261853 4.236150378335584