19

C 2.8742129011068314 0.5914213631979025 -0.19106724244852208
C 1.400273753580702 0.4043465197949577 -0.496639522433821
N 0.9744591751816285 -0.977637993154557 -0.5568918067557738
C 0.8089110083821042 -1.721640466963456 0.6717917556484894
C -0.6228982747097604 -2.186968436591079 0.898512779033735
N 1.2403113880381635 -1.5727231539857989 -1.7177049852022552
C 1.1589962936126255 -2.839652318281503 -1.86565736307222
H 3.1409455931646093 1.6456538420723024 -0.16826068250020795
H 3.4833258305522445 0.1044578223820851 -0.9545913371943915
H 3.14148767187826 0.1623586553681602 0.7774710837405121
H 1.1578767673305284 0.8545998951178422 -1.462758682357287
H 0.7846305200488721 0.9128916696079905 0.25731487083009064
H 1.1169083744550428 -1.0750824340800744 1.4881956365680054
H 1.4974115848355134 -2.5690856058352223 0.671172462117785
H -1.3016414567290853 -1.3325494296174727 0.9831663145357656
H -0.6856220085772771 -2.77629212523106 1.8187529589946967
H -0.9846025364563386 -2.810321566251336 0.07532523579206099
H 1.3892635517785428 -3.231375791219077 -2.845001117832894
H 0.8804725037775056 -3.541577523988041 -1.0814897570684348