13

C 1.0827774258881309 0.054883054220752445 -0.025635610852628346
C 2.4071034714952284 0.20141101940230327 0.009934695924542063
N 3.2596571511967847 -0.49987484507543595 0.8400949641869379
C 4.626136557649452 -0.36888042808274274 0.9042315787590358
N 5.395836956759411 0.4054987869788398 0.23418903489754153
C 5.216069942749806 -1.2618837960642635 1.8675876066562689
C 5.670403010179089 -2.0131217628154645 2.6787818986578653
H 0.5005345620028405 0.6619588764079434 -0.708201373876707
H 0.5663191233998441 -0.6543222191079481 0.6013612618949001
H 2.900859006283592 0.9274112491878846 -0.6286684293486073
H 2.8446953397184336 -1.1851177861968296 1.4516483005091863
H 4.8795233568094565 0.9945122843795597 -0.4177197578240758
H 6.096510304859162 -2.681844346654483 3.4032584503062795