19

C 2.8989760010999612 1.416520817916743 0.32533614430740676
C 2.5317631741806856 -0.005588451380467176 -0.09754362963874293
N 2.991650810355746 -0.3628583333556037 -1.4391337881611266
C 3.0302594844993473 -1.078642739568822 0.8970598668807058
N 2.498181641070628 -2.40066901081389 0.6114400705040753
C 4.5332389242667634 -1.1610631141626377 0.9288983258339731
C 5.312271295158322 -0.6652185927792382 1.8768261048271992
H 2.474460689694479 2.1449713810548334 -0.36910404649737566
H 3.9845917579874843 1.5491003654581035 0.35606023245176466
H 2.5075214752803303 1.6438730772103036 1.3250553587652838
H 1.4452292402609468 -0.10014584552460866 -0.10528764845725119
H 3.95794999520895 -0.09998736600069112 -1.5574483766299339
H 2.45723501386352 0.1498841008019895 -2.1334082600853645
H 2.6914913440094232 -0.7807335447047581 1.8960815108964202
H 2.597020747754486 -2.564648313990992 -0.38132337388051735
H 1.49820832075382 -2.4180651260524497 0.8027188429857238
H 4.975895765720559 -1.6959514649372411 0.0888821903509353
H 4.897235957503491 -0.1567281279238686 2.733982333560936
H 6.391899448814488 -0.7688465996244316 1.8354339153010886