17

C 0.9691959456295254 -0.0498369013097833 -0.00985704733711659
C 2.4819324464485732 0.04174025630651323 0.0988197631476587
N 2.9954981899435635 1.3801990310650611 0.3372090589587865
C 3.0563926561158272 -0.8975386303847558 1.1766698549829597
N 4.5086048063827215 -0.9603978848337331 1.1926248267382
C 2.5618323222498134 -0.49825326491439365 2.5021588062894966
C 2.1482843410631727 -0.13507216270926137 3.567361861393012
H 0.5969762729953354 0.5863836664279086 -0.8203406534636388
H 0.49843149045211116 0.2756871691318566 0.9235143976935469
H 0.6442965911391099 -1.0711360008515278 -0.20842407909544722
H 2.916252238361907 -0.2974361463575032 -0.848835364036234
H 2.549389921012006 1.7758997421229752 1.1616274296624631
H 2.777477272532826 1.9980326187574107 -0.44089100304254325
H 2.6757727738516155 -1.8999917769214785 0.9774212638133567
H 4.865985477213884 -0.0082235136960998 1.1891843546237342
H 4.82265228607926 -1.3967370246731903 0.3326190134072314
H 1.7861107272502028 0.15814312768731645 4.529797487472683