17

C 1.037197185113865 -0.8344432953411249 0.14112273521636126
C 2.275900990593748 0.025920667831030343 0.33422687786265
N 2.0915581313837426 1.3876160981772954 -0.1445746298233526
C 2.322046953738387 1.7631505952677333 -1.4388389682032978
N 1.9943145254735335 2.8312760602033604 -2.0442769628255135
C 2.794832619855733 0.08801053150255499 1.7397859605470702
C 2.278230711962561 -0.5341494665856492 2.7922465278410313
H 0.7441196115526665 -0.823363049743905 -0.9034805090629286
H 0.2019317059917267 -0.4515446696161947 0.7382702262667682
H 1.224615332339499 -1.861007174287955 0.43950089952849014
H 3.0875476537166877 -0.3847187768208475 -0.28057072489831736
H 1.4744400881973256 1.9743459553929064 0.40445902562684105
H 2.9029261820847254 1.018154852625741 -1.9882386060024746
H 1.4559416464280965 3.4575278092919493 -1.444490849843339
H 3.673626237057559 0.7132808992590414 1.8692474858955803
H 1.3968967290366272 -1.1581476890540239 2.727604774515144
H 2.715307983569513 -0.420617702735396 3.7829376581314578