19

C 3.1559283232834137 -0.6237634434257957 -1.6821818578429684
C 3.3268596109169257 -0.15060700463896837 -0.25542801982236085
N 4.208866075628786 0.9882480002659317 -0.18914156153999184
C 4.438124046913189 1.4865051148029411 0.9472932508770194
N 5.252883571528669 2.5645591716013283 1.1398550441668887
C 5.461599517358178 3.0746534503909504 2.470558481280488
C 5.869745378511783 3.159212371459345 -0.014803988903767676
H 2.4916238839044187 -1.48826218939742 -1.7319713104366583
H 4.12482913883261 -0.9068657572292991 -2.103794922870968
H 2.738896066449749 0.17051106373401048 -2.301973632208709
H 3.7142690890127716 -0.9810694780304854 0.3575722148361066
H 2.3313971070354564 0.09670936133866533 0.15890861188452396
H 4.01028943688452 1.0975214911055204 1.8860639082403166
H 4.535277786626302 3.4132823384586644 2.9370270446392315
H 6.138626592815858 3.9270206591866303 2.4171874025739504
H 5.925162863424073 2.331253829988929 3.128460483197761
H 5.127221452272959 3.510649855265042 -0.7266519195178023
H 6.504303007553704 2.4299419708993244 -0.5417983180107643
H 6.49123514570523 3.9961768933884825 0.3022400829893824