17

C 1.203024043424029 0.4072486471321763 -0.2222451170561901
C 2.663752626316102 0.13608578958596648 0.06381958648961478
N 3.144040686176436 -0.9951798618562953 -0.7194732633615991
C 4.348438186964792 -1.3364243871183845 -0.5857801450282518
N 4.8862227921388595 -2.38894899627109 -1.278195795554785
C 6.189873776746484 -2.8117100460883293 -1.177818141657035
C 6.723707267429796 -3.8361451232877055 -1.842970556189928
H 0.8467420053132589 1.2537856782421108 0.36164552483925816
H 0.5973093492300381 -0.47263927024891156 0.022320848763914207
H 1.0605797059168283 0.6278883050423529 -1.280530276918714
H 2.7940521703521286 -0.06536823369291668 1.1306035792486127
H 3.2601783786940404 1.0365653145595122 -0.16575356717884815
H 5.0719635581890286 -0.8533241376807438 0.08918208301539134
H 4.252914508774735 -2.8663115350177306 -1.9088111778296932
H 6.775908603721541 -2.236645822610373 -0.47176548127207996
H 6.159587017771103 -4.425931190393139 -2.5438050054509587
H 7.764416796316109 -4.089196867140577 -1.6824242797469315