19

C 2.1121475146534934 -0.7237125929784445 -1.0434811014400787
C 2.066563299791697 0.6236276286276322 -0.33767843962920235
N 2.526781336394539 0.6051746580943052 1.0310081847378363
C 1.7114790753983031 -0.07628243717687583 2.0062729971794626
N 3.865913033508219 0.5734244435733318 1.1341958051678855
C 4.446484648734964 0.16029366181378812 2.196383978934012
C 5.931975821660916 0.21462919622232554 2.2957508516890366
H 1.7854078267220315 -0.6226098596499618 -2.0776830200777776
H 1.4741863303420721 -1.4570675442375944 -0.5601350962653227
H 3.138100734100693 -1.1078737905446339 -1.0469341097392397
H 1.0472643222171425 1.0250532175331826 -0.34763906258622834
H 2.6977804915897097 1.3511778059904247 -0.8647468881253464
H 0.6629783762769031 0.006839529555950012 1.703555741162366
H 1.81601645995852 0.39010287303333474 2.9883542663365588
H 1.9758430221626282 -1.1426140627509909 2.104914607525043
H 3.883870713878753 -0.2111243449819331 3.0580546600468113
H 6.357089325099185 0.5820496625768803 1.3698243801478884
H 6.335439762875549 -0.7801780434265505 2.5141315839014013
H 6.246634536603887 0.8619664547462761 3.1166800145672955