17

C 2.069804757882631 -1.3878696114302511 0.9095339373957982
C 3.0045165297586345 -0.7159735739122857 -0.0810960669567379
N 3.9328531767931656 0.14671592400357572 0.5951488910270603
C 4.886071829607604 0.870291130570309 -0.04038011491472954
N 5.088693949422391 0.9077679652015894 -1.3141529186832264
C 5.77737269822238 1.7074963157559475 0.7865844795809933
C 5.756754164801303 1.8464841669511378 2.1060081904038257
H 1.3682863280981274 -2.0357079432613534 0.386905051129406
H 1.4901163410404952 -0.649610700702061 1.4640359435554942
H 2.6313050438725267 -2.0054307065301336 1.6159277457248915
H 2.41280017664089 -0.12982928512942518 -0.8064905245485393
H 3.5492848352646726 -1.474744727566641 -0.6586505860564532
H 3.8724489558263424 0.20095643453936268 1.600724149586393
H 4.446507843052336 0.3039805210151515 -1.8144245937286407
H 6.504648659067567 2.246741371688052 0.1821371585020186
H 5.055478836165094 1.3295236500193668 2.755973539282669
H 6.466955435936467 2.495357457195578 2.5994038631192984