17

C 2.2747062180344915 -0.9539546798923505 1.0479804351784767
C 2.788523964183071 -0.1193395820046302 -0.09505168123806468
N 2.8480808844261127 1.1531312440902635 -0.13973727575734043
N 3.2273094051068374 -0.8423546675627568 -1.1531694669825072
C 3.7796087534514777 -0.383713364625174 -2.41170618713643
C 3.915111534559972 -1.8634614501923337 -2.8299952816968124
C 3.3145473831657233 -2.2563742724856373 -1.4640123895435224
H 1.943203928480387 -0.30964059372726566 1.867618732010716
H 3.0520677575107693 -1.6209163553119696 1.4237895044949391
H 1.4322912941946309 -1.572453999995404 0.7345907168149547
H 2.4982662820730006 1.5524283085901167 0.7192621079810022
H 4.716510328419261 0.17183986137925564 -2.303401675691568
H 3.085493096596331 0.22513007352568376 -3.0037870389228765
H 4.932003264121776 -2.20471636544879 -2.9961743060060027
H 3.2994858944472605 -2.151391952539469 -3.6954540795775865
H 3.982627859015332 -2.825186385579302 -0.8141579748873158
H 2.342970468627628 -2.7713091929657745 -1.5113659432964568