17

C 0.884002310695609 -0.17932847175114924 0.011893268284689059
C 2.3721551935751384 -0.08964791190964343 -0.07239049875562306
N 3.0646513516105713 0.7142993412355789 0.6358819513650023
N 2.412077514193388 1.5074453093932803 1.5387463477215182
C 3.0671567708992398 -0.9542913720285926 -1.0544461176883932
C 3.6192524583976313 -0.3520934256842713 -2.33069192123877
C 4.5450032937932505 -0.852306716038088 -1.2640952326003403
H 0.3978979353555455 0.7469294333364589 -0.32211476448800985
H 0.5630519857715705 -0.34399603942455875 1.0542602333263391
H 0.4894872507143974 -0.9944483160810411 -0.6019276106588396
H 2.992734617529389 2.2879634711332733 1.7832273767086182
H 1.487130406290714 1.8281990029659 1.2444180488754946
H 2.6269501330962486 -1.9453523406590816 -1.1673807943000964
H 3.5188479473547982 0.719914409369711 -2.430910583342612
H 3.514773925650957 -0.9168510605123656 -3.2472317484213407
H 5.058736608149881 -0.12086395539241628 -0.6613692989685837
H 5.089277387275433 -1.7711296675611394 -1.4582007433482282