13

C 0.9488270477991602 -0.06376327340467965 0.025290874567100215
C 2.430795421139628 -0.01334071375734599 0.08033944353971248
N 3.1529448662487014 -0.6896542894144335 -0.7137325880356016
N 4.504083769140146 -0.49850890311472607 -0.49180763983987147
C 5.21503020175928 -1.1823754793867554 -1.301329931806489
C 6.627144375124609 -1.1321716539557023 -1.2530428062933379
C 7.831930261423095 -1.1418069820550818 -1.2568726620082311
H 0.5443892902081187 0.9352181021791518 -0.14759000896466426
H 0.5496898549496199 -0.411241021606285 0.9804709039582504
H 0.6185853111501338 -0.7371348086051259 -0.7749477634353059
H 2.911285030271948 0.6244214614630061 0.8330561244024078
H 4.752285274874269 -1.817508023467881 -2.0569356357947988
H 8.894266500247037 -1.1359930159174347 -1.2550632703972573