19

C 4.929666683240381 1.8539072289204324 -1.0476652904628305
C 4.785384084052846 0.3839293640494912 -0.8741162757672308
N 5.365307760250453 -0.22767558378643835 0.06084695208516011
N 5.252087289929003 -1.5823207391588472 0.13748852698849204
C 5.433278260030974 -2.1410589219291483 1.4726897951266165
C 5.088536373426888 -3.616893507614565 1.3988282926476932
C 6.850659637437582 -1.9022255535404038 1.9537511315746865
H 5.387212749869115 2.1075264883349765 -2.0162939149862606
H 5.559186727076484 2.2616953290627246 -0.2556581589217116
H 3.961493345164382 2.352596437804496 -1.0203486578117222
H 4.164602840484852 -0.15682256126773467 -1.607109286434177
H 4.4301709060444106 -1.9509553103711437 -0.3419933486804178
H 4.738206934175394 -1.650684555444126 2.177108227829071
H 5.7568710838849215 -4.129847408933079 0.7090161820824703
H 4.058174385619779 -3.7743038241562568 1.0799647532077121
H 5.204322284448293 -4.073052695017819 2.3836340169363415
H 7.5548350222785405 -2.423942742641933 1.3125805668869661
H 6.965812543050886 -2.274308192047806 2.976757048288834
H 7.088663657135551 -0.8390334557552401 1.9392718885217157