15

C 1.614669657297993 -1.1227407258429674 0.5969776843832212
C 2.9015658362337167 -0.44657020131616887 0.28797285101215436
N 3.4346119024784723 0.3634980334456307 1.1000331250569555
N 4.566693305479202 1.006259563047628 0.72955800796716
C 5.385571541186545 1.4068456468985606 1.8687058497773297
C 6.565146321774848 2.1293393438899457 1.4343135087376138
C 7.547378253393708 2.717541610699226 1.0716910714429533
H 1.7145056704737045 -2.2086596595770676 0.5575278826041554
H 0.8403388138009824 -0.8463989765103684 -0.13545245294677677
H 1.2664517906912414 -0.8337544115710323 1.5875478115238915
H 3.370404499941488 -0.6625200137056652 -0.6837820730367165
H 5.115058694252204 0.5396952288607803 0.006946959359310228
H 5.7036027461194845 0.5399842445743573 2.4749140156787135
H 4.770952095589976 2.036783986803574 2.5112111788547438
H 8.421529356944061 3.2423859299982616 0.7573716565387316