13

C 1.0878833594349278 -0.005424693837531478 -0.20437724330480175
C 2.5710052051956156 -0.17431367751902752 -0.04217018860078538
N 3.203202701900275 -0.08108633997350032 1.0658574780377101
N 2.436169128812603 0.0867421428338545 2.1717984657096734
C 2.7404022124356713 1.062020047269 2.930681965756473
C 3.3437841241342876 -0.4264711416915101 -1.2208372807241978
C 3.9353009307032334 -0.6312295252628441 -2.239412388974896
H 0.5823707042641564 -0.34811378404964766 0.6976179593132021
H 0.7364166101791318 -0.5487216248712342 -1.078935744532408
H 0.8408102355353604 1.056445603411655 -0.3531514700288753
H 2.1801896382658246 1.1704982715093204 3.858281151303108
H 3.5288789065147297 1.7738189697816356 2.691475683439387
H 4.475354551769446 -0.8164858053990544 -3.144549530367108