19

C 2.3259306107634807 -4.02571297137289 4.2147718532682275
C 2.4382346784934064 -2.593239888586748 3.7338340637630485
N 3.826537839604102 -2.1823354008122995 3.715147302633471
N 3.99725518048681 -0.8669701147492411 3.4075047103919403
C 5.1407103136813195 -0.4639402949712333 3.0096616338883178
C 6.316174328757634 -1.3887193316626145 2.8304523058910385
C 5.3279186615890035 0.9823827209761995 2.7369609846436354
H 1.2808210445678714 -4.334716488392288 4.24654219058586
H 2.754139912667151 -4.124869120156637 5.213772197613392
H 2.8493441844978435 -4.711309670883271 3.555291734470519
H 1.9077470362236464 -1.9158153102636444 4.408473039153188
H 1.9677402975304348 -2.4940100843382345 2.7413291176756363
H 4.414218101481552 -2.8166306666004814 3.1830809968370595
H 6.505802441912218 -1.9452159172952064 3.752361053998526
H 7.214251803834238 -0.8368007612770119 2.565941660107705
H 6.135816843337716 -2.1264751271548175 2.0409265438048756
H 6.1128051359137485 1.4149469644698986 3.374691962707506
H 4.397747852929944 1.5221668534730564 2.909299415062743
H 5.642394900502082 1.1536982257450303 1.6995127766860794