17

C 1.0811515042631754 0.17366152385898262 -0.14129819519971473
C 2.585259256151529 0.2685993173740304 -0.08536962441380219
N 3.12265833467345 -0.8529299356379654 0.6349969308382545
N 4.431112086753246 -0.954373416241201 0.7955070268028438
C 4.907591095418067 -1.9607023143031237 1.4310226591996733
C 6.329725068725866 -2.0979261449282793 1.6273357588430613
C 6.917399512420568 -3.099892035647427 2.2765088961154425
H 0.6600071009137644 1.028241183999844 -0.68478431011934
H 0.6417616556175754 0.17370536185237118 0.8598588887629143
H 0.7592590439499783 -0.7325618226812388 -0.6587278004090309
H 2.8877131100524474 1.2082523196271868 0.40188584201027
H 3.002475868890537 0.2996221971196397 -1.10342242184885
H 2.5059720825395377 -1.5498487372563312 1.0084715824190424
H 4.250984390781579 -2.73572669668381 1.8470871713493315
H 6.9288986948343565 -1.2966612395613586 1.1891944843184903
H 6.326089484097597 -3.9051751143430886 2.7118626376825024
H 7.988849551890591 -3.1551337181554953 2.3925350821377775