14

C 0.27315348929111144 -0.51104831628607 0.9610356728968773
C 1.2611156958793235 0.15535347148595033 0.06502458837710356
N 2.431470557035607 -0.2956625097816874 -0.06944804855068482
N 3.261263298540242 0.3154192171602457 -0.9580742072003976
C 4.660562954310232 0.1360149409809811 -0.6136593939243743
C 5.517659092318495 0.6488756918891817 -1.6719157428924325
N 6.201104862516644 1.0735476076207875 -2.4885577393093072
H -0.09673282828620038 0.18705329326121442 1.7187511781750326
H 0.740343920137172 -1.3609770111510766 1.4550889824939641
H -0.5977390541067775 -0.8652600411288728 0.3952294676209893
H 0.9281001813792623 1.038308303402968 -0.49523153976193635
H 3.0311545979684427 1.275849199549899 -1.1684989925851996
H 4.840986607879641 -0.9348242518119164 -0.4879859770663513
H 4.944814092593658 0.621175781491228 0.328029528626289