14

C 0.5183591053027717 -0.576923012683355 -0.25923797288357975
C 1.9442474628945716 -0.154076240752743 -0.5326392937982108
N 2.4611394391771926 0.6359179319407573 0.5541357993925735
N 3.7642589534262423 0.7106960171102181 0.7116097485733427
C 4.2553999772371744 1.6108688069981316 1.491322626208849
C 5.6608037213164195 1.6653615482645345 1.696368130593748
N 6.793140788348847 1.7521587540278896 1.9126904966549767
H 0.1360034234989324 -1.1640652534184046 -1.099825771061081
H -0.13822908794287395 0.2918092735088464 -0.14544489926080528
H 0.4561823529752067 -1.182505921214469 0.6476139240762079
H 2.002407560300791 0.40093216599718523 -1.4828104751233961
H 2.5987847473012686 -1.0252284332918542 -0.6292498248478158
H 1.8826214881508399 1.3915188054297203 0.9015061181055322
H 3.6508012712238296 2.355413022019172 2.0096455036753653