18

C 0.6083710107369752 -0.09843679549576037 -0.267791986014686
N 2.002289133367201 -0.001680813831549144 0.09123270826958535
C 3.014241108247374 -0.9023548926081281 -0.4080543916235427
C 2.7507422913596495 -1.746485603483271 -1.6275623672173738
C 2.3953358181139355 -0.7665765732681512 -2.7772669619008603
C 2.745738761617561 0.6507273458960545 -2.2776461235398715
C 3.013764640061332 0.5399355277276178 -0.7959143870208685
H 0.13146394441751388 -0.8292633937725187 0.3737123208671358
H 0.39888453058262946 -0.37547911310079185 -1.3068250376012074
H 0.1296013900930175 0.8673909298063034 -0.08285291624058463
H 3.680822694438584 -1.300276597696223 0.3498949180100192
H 1.9554766725531978 -2.4801080016523245 -1.4630426067556155
H 3.6542380407778183 -2.305189370537573 -1.8656695712736306
H 1.341287705488042 -0.8444582217580144 -3.0267005242949736
H 2.944534618348465 -1.0135128976311003 -3.6887081616819635
H 1.9600848068266876 1.3674765371505118 -2.502822285396104
H 3.6612980040733727 1.022811353171177 -2.7593273052367806
H 3.685012064258886 1.2676424837984133 -0.340423694936092