17

C 0.6912729328021046 0.03925483069667975 -0.1876007783352948
N 2.1141484391215677 0.10219215297428295 0.022615796750739558
C 3.035005206605176 -0.8313999687445358 -0.5765937864180501
C 2.6282018516389596 -1.6191639346443434 -1.7981106594841492
N 2.2193987055919675 -0.6653717144084069 -2.8108544126128763
C 2.620811544762 0.6820882495688393 -2.4167776811104655
C 3.0386881740518223 0.6090901562571631 -0.9620935304180792
H 0.2570427932129307 -0.6898768704335579 0.5001287666787859
H 0.36940847165302754 -0.23311743405453783 -1.2069327307265483
H 0.25816446293247663 1.0100406849725045 0.04306474083157468
H 3.78175149288335 -1.2605235237490247 0.08515270535348446
H 1.8152413844047475 -2.3270451434484727 -1.589834561914311
H 3.485649476170768 -2.223031193597002 -2.1322533568543096
H 1.2282597441778462 -0.7095480711023032 -2.9969126535487827
H 1.799107781196575 1.390862643559515 -2.5862872753140103
H 3.4753025021459294 1.0417662778391266 -2.999082940715155
H 3.78015045673656 1.3182158255136713 -0.6033870421861635