17

C 1.0672537810765999 0.38504635830249645 -0.1342134537830125
N 2.5017721691031922 0.3521689314461609 0.0017346649484135473
C 3.185475338555799 -0.7581271865454672 -0.631257883236047
C 3.2783822275359666 0.6120093957774653 -1.190209072213599
C 4.499122858065877 1.4496530780781958 -1.0316020420087018
C 4.411236246847693 2.7486688980224296 -0.3474131784615916
N 5.079090666212211 1.613717895356493 0.28192464596368466
H 0.61747979281195 -0.21413975468807267 0.6700458543643552
H 0.7193028196513017 -0.0127845752011693 -1.0929984919749047
H 0.7143384663048805 1.4130265977077272 -0.03141767590831698
H 2.5823835644873125 -1.4897058821991616 -1.1666849459107431
H 4.027362040104539 -1.1787551273747228 -0.08125128287564706
H 2.7164347540640215 0.7763359190402137 -2.1043543606983257
H 5.22836136967083 1.3267777048316143 -1.8305616960742686
H 3.4305295093974064 3.033146236903713 0.029146473956281817
H 5.0598843305358345 3.564433134324865 -0.6372974275749937
H 4.429297168540307 1.2015776466720678 0.9562905079528444