18

C 0.9205133517499406 0.3171610075871718 -0.6322114572200348
N 2.2468162100851212 0.09763025328505048 -0.09427716288459802
C 2.9773271802174004 -1.0254682019139116 -0.635282840299896
C 3.3569892982671163 0.3600516052041469 -1.0012987140380518
C 4.579675856676171 1.0270347784359608 -0.431794820029898
C 5.8033059150635715 0.740271233172723 -1.2270559187477037
C 6.567064362378088 1.65608158675787 -1.817057641041914
H 0.20762997896602728 -0.2955080229033345 -0.06625585674786631
H 0.839242207539429 0.05398043848544766 -1.697126538031819
H 0.647533342692431 1.362445015664639 -0.5094206477478237
H 2.4846253619165317 -1.6329945345021737 -1.4036963224305128
H 3.5747138280358453 -1.5969413955656604 0.07325015100346237
H 3.0846114423629403 0.6630114308525709 -2.0070700731188547
H 4.700726025452477 0.680825121383266 0.6011695732508526
H 4.416431665603156 2.1117015564895696 -0.3775124403976674
H 6.063712775530276 -0.3103001019500325 -1.3282825209466587
H 6.334610136383304 2.7085198107043946 -1.7520897482712574
H 7.447806766030611 1.3720399073583374 -2.3841887364782957