19

C 1.7206236298353843 0.6422955088628904 0.3608905222757742
N 2.7468138120923404 0.31426979133373517 -0.5912500156439182
C 2.325220897921167 -0.29610346141644556 -1.8417034006218953
C 2.896963595089202 1.0672097169072845 -1.8325073922413044
C 4.332834694353499 1.2727875001663664 -2.257593396202242
C 1.9733764432789154 2.2174048194618616 -2.150416310501311
N 2.3991079220332026 3.4454392169150845 -1.4879949190808137
H 1.5069988308206637 -0.24406005544042822 0.9647661626169836
H 0.7744960867505717 0.9957246935122743 -0.06654838812141234
H 2.097991508156441 1.4099338067594305 1.0496234569386163
H 1.2528021832035818 -0.3867903332486558 -2.0182209494125365
H 2.9127472323198838 -1.1397366106424225 -2.1828956571501363
H 4.9369421424197855 0.4227756259324581 -1.9453086105035782
H 4.737866078314536 2.18682367722595 -1.8012779676054078
H 4.397018755126058 1.3782204030992828 -3.3385862421242574
H 0.9305718327719248 1.9324518949608762 -1.932565738493973
H 2.0160431391009386 2.3942630918069123 -3.2339241955447866
H 2.259200899820862 3.3772843002658273 -0.4924291260244227
H 1.8555865285929478 4.237084268781979 -1.8099742711340676