15

C 1.064589222526171 0.3168931742812124 -0.1541163816493132
N 2.49845313344888 0.26174271976156843 0.037565400749503604
C 3.2209700178466725 -0.7460005874636073 -0.7077866035561111
C 3.32077687343341 0.6928581746131387 -1.0615950583783693
C 4.5493459970195005 1.5008883305536773 -0.7290572086606205
C 4.240831771788186 2.918083224917369 -0.6030003942698867
N 3.993142254096389 4.0412215746195175 -0.5192292653846161
H 0.5883361707715554 -0.3885576019364967 0.5295176395541076
H 0.7607609742732824 0.06024517269751134 -1.1794563085503285
H 0.710891819660886 1.3215560643654922 0.07803795584239981
H 2.657427294601278 -1.3851576413736082 -1.3815561092028348
H 4.03773911891694 -1.2344006127466738 -0.17687783447102287
H 2.7971153363446923 0.9951924656257741 -1.9687454473831687
H 5.3049782967466586 1.3772254500570094 -1.5088692107028805
H 4.9745460467539555 1.1465117324915697 0.2096311523672085