20

C 1.115865065723627 -0.10404587287575129 -0.011168027359177336
N 2.542050557374961 -0.12526333229997214 0.15074008983270823
C 3.175973375468149 0.9212465692398669 0.9393548842074144
C 4.227711564267556 -0.09896787319886695 1.3985690811357696
C 3.224470998712975 -1.1821277692516075 0.9368852103175084
C 2.4152787253839465 -1.7441589772062587 2.098275916249241
C 3.7635674008361137 -2.297408727604801 0.0668397862821775
H 0.8240020178517118 0.7524083831806994 -0.6181236815775434
H 0.5501836698140671 -0.040864236286333365 0.9375992180855923
H 0.7874920631350368 -1.0045295719844578 -0.5291628995391305
H 2.561490023362803 1.2838283123568723 1.7766109380959185
H 3.5255902271348156 1.787073026648761 0.36932416573305593
H 4.491502367435347 -0.10593563841951732 2.449746499949712
H 5.127181234094878 -0.07792604750832086 0.7872708578265069
H 2.0163696147893377 -0.9442205768517689 2.730411660656647
H 3.0410735728292964 -2.3780866211022023 2.7195607702395623
H 1.571337441122249 -2.345184396398195 1.7378717168683626
H 4.351112973850915 -1.8874226190746675 -0.7646641671010955
H 2.9554990167277655 -2.900232846483233 -0.3550788167614169
H 4.401600393837669 -2.9724973525672214 0.6473890513683983