16

C 1.1245911212107604 0.020230505731215313 -0.04239896235384252
N 2.5521270542559673 0.06698906205654102 0.06993718235859708
C 3.178333797645713 1.1165652537871817 0.8871119175450171
C 4.251597740735971 0.10319093966039683 1.311907409703051
C 3.235775731073423 -0.9680595224153666 0.8671099491748555
C 3.684849407656083 -2.1539036864001484 0.15239257353016578
C 4.068560774618916 -3.1338129156080825 -0.42372477605073305
H 0.7621306656256474 0.8798739252352968 -0.5959002873539232
H 0.6174222273759609 0.005048354293233816 0.9396148018685374
H 0.8337495131554761 -0.8833193402054866 -0.5875184500200631
H 2.5454274108315933 1.4149858296200601 1.737510980198222
H 3.484256019236929 2.009334792549626 0.34029708139794684
H 4.554836668403695 0.08895058503145414 2.348067435222152
H 5.1229032045236504 0.1277358360711349 0.6562067549903678
H 2.618700627237573 -1.2835952185684614 1.7261068677020048
H 4.398106348702506 -3.997269481133104 -0.940238319240554