15

C 1.4914582288789104 0.6250156783689885 -0.3521235386227736
N 2.774078049418389 0.3524105127681862 0.23364297581157623
C 3.0174447986527633 0.7237438636697459 1.6372461010084267
C 3.8734699405750104 -0.5392972797767038 1.788421968953533
C 3.1154312586198634 -1.0386934643124268 0.5399626777685053
C 3.856352483241339 -1.7460223740436782 -0.4946714099341464
N 4.452050616326818 -2.318837409990985 -1.3035967421426236
H 1.3604314716150947 1.705772395298864 -0.449594060047581
H 0.6518508968304672 0.22079998931750902 0.23043291748605407
H 1.4489953195269158 0.20074767868470494 -1.358281593944212
H 2.1070284252426803 0.6932059683491824 2.2555273148781056
H 3.50625627698008 1.698974223065399 1.7693220334353665
H 3.7507343811779497 -1.1318793395811884 2.6944523540226557
H 4.929979358766245 -0.37010317170693047 1.5871447608023552
H 2.2488412547717895 -1.6500596898240554 0.8116106178853937