18

C 1.478653329992539 0.3146353346632957 0.4843324306217198
N 2.5371926705340058 -0.2255250591528932 -0.32390377255904956
C 2.3181429641027957 -1.6047414349670726 -0.7240008013271721
C 3.22472444883264 -1.8145903808899673 -1.9416179755945238
C 3.2735966747837764 -0.44122890891560307 -2.5740267663998684
C 1.970242577897912 0.30144341343580416 -2.7545993472464767
C 2.8263560980014035 0.515802111288911 -1.5263011808640292
H 1.3819765269383508 -0.273463504963801 1.3994731028361012
H 0.49753543709170456 0.3176301844055591 -0.02594170554787218
H 1.706060672856428 1.3417642539712658 0.7689166675353347
H 1.2717187365214517 -1.7923288532127952 -1.0033332985663546
H 2.550874934752261 -2.2846634866726188 0.09564923509792513
H 2.8515303410598047 -2.5906976555339702 -2.6049590212234364
H 4.227221939465255 -2.09732008856021 -1.6240970761190028
H 4.09827648975663 -0.19453135199643243 -3.2289775656331168
H 1.040144820852665 -0.24798625463850416 -2.6557488751348775
H 1.9519453408346827 1.0939027918693947 -3.4944710231676983
H 3.2983907922433735 1.4765788456914055 -1.3679912674297352