15

C 1.047715648374421 0.03180662543775815 0.07464548412618101
N 2.485578561852288 0.035959919022107385 0.07489555078434951
C 3.2905579866477535 1.1648806476855562 0.08071174967797484
C 4.583769590613567 0.7553407795751792 0.08979311473540152
C 4.593501537129769 -0.6651696240868454 0.07967455150970171
C 3.2745082292531817 -1.0687736625510034 0.07970637469491682
N 2.721993936212215 -2.3257815030598756 0.07425153449576632
H 0.69345728547982 1.0570564346077136 0.07071164582784102
H 0.6526561098181537 -0.4646830905712334 0.9573446620138375
H 0.6574267503395852 -0.4626315247373884 -0.8253774169645561
H 2.850409736619836 2.1494766131265375 0.07798914716374224
H 5.452933946818004 1.3961892582248812 0.08723692196899796
H 5.4562340665943125 -1.3198253976291254 0.08271279842573631
H 3.3190181339038007 -3.1266554286519836 0.06738877279898221
H 1.7385509507939974 -2.4745333345998985 0.06371461018110906