15

C 1.2174876233847718 -0.022356554078319144 0.23457669374903492
N 2.634006804238165 -0.06827015251981401 -0.011999947538293374
C 3.3904758219947917 -1.2749386773405047 -0.19563540680152414
C 4.772891330355955 -0.7539739985301295 -0.4228196279978307
C 4.770457808515727 0.5668617574067609 -0.37407698626221
C 3.3999812445048807 1.049800571301846 -0.10500390745551334
N 2.9223993150009764 2.2316980812995357 0.018162309600584667
H 0.8215084147182049 -1.0356481586962443 0.275069447820938
H 0.7053852154334506 0.5377425625914095 -0.5449359118256509
H 1.0076831105466588 0.4704764126125811 1.1902440948881652
H 3.0394228230111815 -1.8649964884783914 -1.0511305128823418
H 3.349032399863293 -1.932147493128871 0.688595960688005
H 5.616469506803102 -1.4076339473661743 -0.5951950255860115
H 5.615565603844965 1.2287593894748068 -0.4984810423397657
H 3.6618241558919107 2.9225538432943257 -0.07811496142747267