17

C 1.1783929376823936 -0.11538022322613585 0.15821739064417384
N 2.5500630532985915 -0.0678761059389769 -0.2643635891726375
C 3.339355268012265 1.1198983969568448 -0.11419918894568883
C 4.647333903861662 0.7525811327116381 -0.8156818153423497
C 4.735325728041801 -0.7537474725469234 -0.6058291629704761
C 3.295158373705784 -1.2004041337194906 -0.43351047411082727
N 2.804108300540693 -2.3727824005083753 -0.42563795287362355
H 0.5923948863082436 0.6374203218090904 -0.360143521112649
H 1.0746690654423057 0.053375854581575795 1.2397335910148066
H 0.7906142564927824 -1.1041743226367922 -0.07772571190060808
H 3.511491631362316 1.3673441203992052 0.9448838610703115
H 2.8500885984844886 1.978420673817127 -0.5693848533394167
H 5.50525193319947 1.298193149357565 -0.4201617018693228
H 4.568277268644259 0.980494035507707 -1.8786135081663038
H 5.271842847214115 -0.9999229834496526 0.31508557720131575
H 5.222190189934291 -1.285242769037449 -1.427191270160639
H 3.5201606659673006 -3.06072728956321 -0.6112831808691201