15

C 1.1131531682766616 0.1318941580645552 -0.2598515546453948
N 2.499989269704928 0.05979972872479097 0.07338035281376158
C 3.3007794873468166 -1.1514440634771275 0.1807566398853885
C 4.652306354593521 -0.5874023742586231 0.5474388780297389
C 5.785238548740664 -1.2642204360455889 0.7797968623585559
C 4.431009749588602 0.8430913966170246 0.598049843477483
N 3.205462803476249 1.1647715523630935 0.3209045683289336
H 0.7416024248755801 -0.8850263437840222 -0.42277989861615406
H 0.9484306836752455 0.7077189213518827 -1.1738358991618523
H 0.5303902586393707 0.5888905786920027 0.5476865167125954
H 3.322361298681395 -1.7006108368727322 -0.7629640398146995
H 2.9070716449715506 -1.8136667978166514 0.9560377069227142
H 5.836279675452156 -2.3427923519798703 0.7200622053698071
H 6.702448203032304 -0.7388255064398944 1.0415579032219953
H 5.157125772047229 1.606744762600568 0.8223954722846902