17

C 1.0751329099318652 0.03293474859914721 0.1717560239858041
N 2.4938148564244447 0.17224488544510577 0.38770802255753567
C 3.1164068805495613 1.3027448034321933 -0.2562368941514212
C 4.561693374914673 1.4203303135878236 0.18994078387597713
C 5.281407791829966 0.12276586763108023 -0.1439579071730471
C 4.383293422769348 -1.053712052498516 0.06941604977098532
N 3.131552742826841 -1.0221486073194654 0.3072750254125568
H 0.5637515870522692 0.9349233501131868 0.5189018011757062
H 0.7119438427939209 -0.8187347264620651 0.7369223304131999
H 0.825337083347284 -0.11210417134370372 -0.8949152549778663
H 2.5482862716216057 2.197370595824991 0.000927755623169847
H 3.061878449077908 1.1932941960414518 -1.3562489031478482
H 4.582226665013841 1.5901608200939237 1.2653141212111403
H 5.03528253399204 2.276677603919513 -0.2887655577658568
H 6.182146606976473 0.010351286599469453 0.47078298666021795
H 5.642580966205828 0.12982899302791207 -1.1885809134767475
H 4.819839844488025 -2.053324329199334 0.04960611109535487