15

C 1.0303550856679025 -0.07776096029818128 -0.2528679921484202
N 2.440045097099781 -0.021630186921876085 0.009309050477590964
C 3.127912892630759 1.1845431065330054 0.1083917567636029
C 4.4329565670947995 1.2104754651507912 0.35209275180539534
C 5.215200519414297 -0.05172585107508257 0.5318237636840409
N 4.41551347923109 -1.2653040442012975 0.4091129296382797
C 3.175877388784624 -1.1710750122842295 0.1808552756407493
H 0.6446287644186987 0.9300416541022112 -0.3609822423817581
H 0.48103488408337125 -0.5697300889990987 0.5634231216391635
H 0.8076281721588817 -0.615171813759752 -1.1832737989095818
H 2.5282499902976188 2.0740295838728864 -0.028780008055484592
H 4.944645439169273 2.167927682989479 0.4143300296884274
H 5.708408580313629 -0.07387822702495746 1.505936830751407
H 6.030438943376675 -0.12058528230510313 -0.19603318491107485
H 2.5812899093894615 -2.082219446815389 0.09115538227390602