19

C 1.1589749141173376 -0.08717222100425295 -0.12918446541507636
N 2.5883993590019085 0.010631626636469004 -0.015320710689857627
C 3.1539355246962377 1.1098774128191051 0.7718359676185896
C 4.26040232058412 0.14493638364826217 1.2568668811261627
C 5.5574816516555 0.22871748290324045 0.46448131995805403
N 6.529030108864835 -0.8145483811865288 0.7301820985243868
C 3.2951726412142532 -0.9680603297478805 0.7986691064114759
H 0.7701853831967775 0.7617765443912893 -0.6962804272497213
H 0.6567821602842698 -0.09877948611738079 0.8597411830956241
H 0.8925551866854151 -0.9954383094423487 -0.6681931011453746
H 2.5053334206203832 1.4372285297739493 1.595359362474881
H 3.4618371533764356 1.982205345606472 0.1864892306355891
H 4.469427402408813 0.17712632983480214 2.3264996146766053
H 5.311445898104342 0.20494195633804538 -0.6071956241414831
H 6.027279080103483 1.1922455979440967 0.6509480691449241
H 6.777710349568943 -0.8280643929312327 1.7114711702037777
H 6.143075778805644 -1.7258805495821337 0.5112870992974221
H 2.6858537089396792 -1.3549142848377633 1.6387193790272296
H 3.7125198477668895 -1.8203487129796976 0.25165598712175713