19

C 1.101065012185101 -0.04155637546345934 -0.16945222716038758
N 2.486583475011712 -0.1046318645789211 0.23197818756623742
C 2.9290934644018445 1.0504091409197447 0.9937375513744643
C 4.283514487034285 0.6036823919684791 1.568548519724065
C 4.271826715028121 -0.9333296561244658 1.4766243723867307
N 5.284656017134227 -1.3845684607325441 0.5258935834757289
C 2.829340135827195 -1.2297790134088435 1.0663512556843593
H 0.9374728338051476 0.832532208417653 -0.8093664883065046
H 0.4167433612727714 0.03116522264579949 0.6919652740033028
H 0.8414420547137476 -0.9324595402495729 -0.7418451881566638
H 2.227861355465046 1.2799373745203304 1.8187829821887547
H 2.9917099357801136 1.9388566397617102 0.3607734860416079
H 4.419413940487023 0.9525216160016328 2.5861517435979855
H 5.119830667068772 0.9918556608430728 0.979094648375595
H 4.513373855460605 -1.3935029635818397 2.4376908832270114
H 5.040566778400924 -1.032590572020201 -0.39883537512859846
H 5.2854257147232175 -2.394532718077203 0.4584695841563056
H 2.172864800125006 -1.2850242168140176 1.9684446985173183
H 2.7286536409867352 -2.1811196051275807 0.5277358367008732