17

C 0.9002109344080881 -0.022252358162812347 0.061644672693476295
N 2.3289505259192933 0.07352080977649188 0.1452110423989145
C 2.953713477459667 1.3003634341097499 -0.28683770106588075
C 4.3905848727103285 1.3320699818673527 0.2037483305712645
C 5.091647982268108 0.03991044395353397 -0.16422538282537666
N 4.364651120484004 -1.1515872260869058 0.21538585077479502
C 3.1007399542086036 -1.0446726780934104 0.3238755287759615
H 0.4203908700319869 0.7691170818207042 0.6417289462250779
H 0.5690182977330757 -0.9883900315513492 0.4551274710967626
H 0.5371162103845442 0.06335368679927508 -0.9726324467763946
H 2.385195636469406 2.136358041622906 0.13167985436353832
H 2.917098727608453 1.3891211844689586 -1.374757409780889
H 4.395509500625202 1.4404595314046171 1.2906043636561222
H 4.91142189871182 2.203053363833121 -0.20935263284297673
H 6.086041976302881 -0.002090706883022578 0.3029728197955521
H 5.273731283015331 0.007440310824308454 -1.2529649010016886
H 2.5244132857620265 -1.9244677027062511 0.6155436604767742