17

C 1.1299020977292769 0.08098440077458811 -0.15265261557816429
N 2.5377315299937395 0.04134841614272214 0.10108422966488749
C 3.298431779655912 -1.1778082071304012 0.30350295930765686
C 4.718310672948424 -0.6112839027136241 0.5296032524364817
N 4.61158180652416 0.8414763471726725 0.4416556234707166
C 3.3855257984964546 1.1049335100954154 0.20049844267020994
C 2.868384216857551 2.4966591948487435 0.03783037060179478
H 0.7491056682238802 -0.9425047356682432 -0.1714736241928609
H 0.8936366724585105 0.5344874927567446 -1.1212266453966455
H 0.577883964256454 0.6184922048996536 0.6216279088868449
H 3.2326677387970144 -1.8329824605667533 -0.580322828545898
H 2.920726525645698 -1.743560418600254 1.1602207125944979
H 5.422475434989224 -0.9822678930622558 -0.21019619357653774
H 5.108995614352202 -0.8988740340056162 1.5171802372600005
H 3.694714252412997 3.190930773650234 0.1560557392995826
H 2.104483572394958 2.7116902291507863 0.7838868291297525
H 2.414355854832132 2.6276664717691642 -0.9479726821481861