15

C 1.1227208686765224 0.10979894491698637 -0.3011491622747219
N 2.5271080474396084 0.09791385673229962 -0.024446513846374113
C 3.297979577582849 -0.9993903315192222 0.2941923579140468
N 4.535810765405479 -0.7839179460679748 0.5066610945493677
C 4.707807699352516 0.6569001864960705 0.33721746401025215
C 3.3414034372436108 1.2106861700780556 -0.022522232588467198
C 2.968053478318255 2.4683683321039394 -0.2745955454356428
H 0.734572905627096 -0.9092349678614855 -0.23468906260445388
H 0.9313637943410743 0.4894534343488326 -1.3102062396917376
H 0.5873253613594126 0.7377558864677407 0.40769750962564183
H 2.8352695337531055 -1.9837890645147815 0.3368420342562549
H 5.441569463646799 0.8540251775173656 -0.45377366466618385
H 5.103395461105651 1.0999902632602543 1.2537745154115825
H 3.6896060733990534 3.266399443043321 -0.2428719667719077
H 1.9446757043410599 2.7233484012578217 -0.5196102052174872