15

C 1.12755085215221 0.020361151776114556 -0.19144734944528452
N 2.419896163834361 0.3613718598227174 0.3256795581955074
N 3.0493740740280852 1.4143636017493015 -0.2693481943829749
C 4.320473849883015 1.2567226279384534 -0.15197856817472163
C 4.711707306387457 -0.05312019609277745 0.39905578192993374
C 4.22088544858464 -1.2230917597380981 -0.42638545669304007
C 3.357394751051827 -0.66791538768228 0.6573023141547182
H 0.5581982920436993 0.9306508649698915 -0.3275064836199037
H 0.6059696141603282 -0.6140669527879221 0.5389846779424923
H 1.1733298946997368 -0.517907025408459 -1.142065840742883
H 4.993427539329884 2.0515773437058646 -0.4555061509805701
H 5.5700527338963175 -0.17123208083751015 1.0524305016961295
H 4.689139921713766 -2.178163400081575 -0.2284117200732222
H 3.960991624771455 -1.0427274597200282 -1.4663117883657022
H 3.1195727039298675 -1.277532956477895 1.5275116565612057