20

C 2.975728588463363 0.8053202631057667 0.7575705634568566
N 2.2647744620990644 0.056115819991727524 -0.2553476746474835
C 2.7684457369176836 0.22166444917586448 -1.57683141179398
C 1.8639384322484642 0.09072068132334375 -2.7486579207967394
C 2.523970382288861 1.4175424514062727 -2.471197080878206
C 1.6381969029840584 2.54150800362561 -1.9829325340248678
C 3.6312272338617513 1.853374793224799 -3.3781732141283713
H 2.5297473282218346 0.624524772607866 1.7409521561945402
H 2.9961938899170266 1.8927753822389903 0.5819473978007478
H 4.016251586019137 0.4607764485299406 0.8050526221667087
H 1.2660869148077785 0.24281773566860163 -0.21260922963254747
H 3.758232136019254 -0.21659634621731677 -1.686336692760588
H 0.8063225011137025 0.0008231058806335862 -2.5423395037500947
H 2.200728018964005 -0.4944684536605534 -3.6046667604887452
H 0.9086620720823323 2.2057388938050546 -1.2491186215814816
H 1.088595058222218 2.982277158634797 -2.8182231296075644
H 2.2378799010549493 3.330812386329042 -1.51918112773051
H 4.257075971354161 0.9977984675690459 -3.6778272312452325
H 4.283859338731013 2.58258186459423 -2.891449064377128
H 3.2441767019900785 2.311012948503484 -4.29423392323758