16

C 3.371846469580981 -0.6945154061364242 0.5064976097437743
N 2.4379164872720995 0.04355875971208474 -0.32720273260753713
C 2.9899256346685874 1.1841892531540164 -0.9557435775065594
C 2.1671913421146036 2.3829441095033994 -1.206901441321022
C 3.2862393992362864 2.4730673979694315 -0.18651610644864614
C 4.457083131058473 3.2337604386071774 -0.4768465934946817
C 5.450508305958839 3.8655366930462667 -0.7406118448507605
H 2.858513956007905 -1.5479297195468187 0.9526018549887876
H 3.81794261494431 -0.09441380499341528 1.3030873091145263
H 4.177412497921493 -1.083680731787805 -0.11511761974187149
H 1.5993976178438116 0.2792392285677298 0.19229934409198862
H 3.7301313541657946 0.9441378875773833 -1.7127283508714841
H 1.1572813370497832 2.3952534522161244 -0.8162184009339511
H 2.297552984902132 2.9215821322019266 -2.1410015578766086
H 2.9810872019871124 2.467719525112653 0.8546263575147631
H 6.324868647885062 4.428533364044336 -0.9666456375734936