19

C 2.1123895586729944 0.5225822169537896 -0.9810323069658211
N 3.473415697599251 0.34122474433240724 -0.49647470108590136
C 3.5695369879908956 0.36677443361273787 0.9278649026052506
C 4.783863458858619 0.948543805588574 1.5797779868566528
C 3.443121519206635 1.6296122871805592 1.736171606567013
C 2.7629483787460076 1.646515634488587 3.072078357191117
N 3.273487884298382 2.7325712489701 3.8956366399480657
H 2.117734708535779 0.510872785110785 -2.0717874641059417
H 1.6351259804738607 1.4482855980368725 -0.6337016523911098
H 1.4915395769733601 -0.31042246721155947 -0.6446188759830397
H 4.089862495649494 1.0186329324762065 -0.9036303494945482
H 3.173289054671735 -0.531207695505278 1.405944261302308
H 5.522738454517377 1.4255664607739051 0.9392958075841218
H 5.201797906181468 0.43870481040807136 2.4333010066357432
H 3.3124071167259608 2.54174287104313 1.1514062613574694
H 2.8828291500994925 0.6488335490259811 3.523986684686007
H 1.6930281090378583 1.796809663717484 2.932779732964939
H 4.2702495937202745 2.6250223000799426 4.028382619223628
H 2.8387544515820937 2.7162141342433404 4.81063009291317