19

C 1.7633768660669065 0.2791454162959206 -0.2162485384036266
N 3.092785980159414 -0.2888927623341294 -0.06880348059576372
C 3.5984337636231314 -0.2491691118345214 1.2636021208847754
C 5.0698900818451005 -0.1804134166865928 1.5090998652738892
C 4.191276307959639 0.967625210062693 1.9416149213732343
C 4.30755260404268 2.2697595911062125 1.1876974481153963
N 3.964030853578893 1.0401797552577066 3.3522184921537836
H 1.4456723799726845 0.20635268848299346 -1.260606464055165
H 1.6884331024442631 1.329262117137341 0.09773608914004378
H 1.0613095601048577 -0.2991815336275252 0.39116337324104505
H 3.739564102310986 0.11803205857896858 -0.7230892466821969
H 3.0396828257615587 -0.8890645669739108 1.9478657031195048
H 5.701617251831451 -0.022161684591903718 0.6432998161141084
H 5.489167337698017 -0.8176205471564092 2.276943347673071
H 4.390163001110037 2.1194323042697514 0.10893515720514836
H 5.201613277007633 2.822679863307604 1.5120809787008316
H 3.4422534788926615 2.9087789302707323 1.3680005312600303
H 4.728222874539079 1.515203117546724 3.818946664433655
H 3.1117478194821824 1.5538694147858712 3.547057190293805