20

C 1.148875779925117 0.4313394039137591 -0.3428783015127756
N 2.363257443624641 -0.010793601609981846 0.3164190832133813
C 2.943965468370471 -1.197420794058209 -0.22133963471090876
C 4.192475871840697 -1.7455451132502542 0.4822870473594804
C 3.7257500249899493 -3.1701735383387595 0.12114473324121178
C 2.3013367246949326 -2.615384750023572 -0.07750252427872929
C 1.4489753973357904 -3.1843736508742935 -1.1881544997316644
H 0.7964214136374089 1.3579085247182412 0.11788041396236008
H 0.3261110696015069 -0.29726802140573155 -0.3235057058094104
H 1.3691960818125053 0.6546305252309553 -1.3912502912450093
H 2.197253808707842 -0.12513802444807573 1.308350379239196
H 3.1592914103776275 -1.019684227628304 -1.2878947130064624
H 4.126625933027846 -1.5710440754762862 1.5561850719533719
H 5.172664344743287 -1.408871959673871 0.13076172253989166
H 3.8658980401981955 -3.960929843466612 0.8581590762817272
H 4.153042480050442 -3.5011592833414342 -0.8361209693300589
H 1.7605088863420364 -2.6486820044229566 0.8734018052639941
H 1.9555582706782946 -3.102248384831949 -2.1509849689628
H 0.4945150373575149 -2.651255325360139 -1.2745647463166494
H 1.2235858298603555 -4.237983831320582 -1.0167171091391873