19

C 2.0462322881728503 -0.0993499875719022 0.9326091789864308
N 3.276906905166003 0.5385348261294423 0.5179071261584066
C 3.1500094071634224 1.459489088745003 -0.5790939832419858
C 2.530455562734486 0.9859453181739892 -1.8621849810935442
C 4.280671517885725 2.4638982432965753 -0.6654964401321134
C 2.9441151805240553 2.911126078143693 -0.15906576180810103
N 2.8282901062734225 3.3176534217248257 1.2106474932357911
H 2.2491153385141356 -0.7354010819653067 1.8050551651032525
H 1.5691735900807395 -0.7268655056846117 0.16760737209179116
H 1.3284938419530563 0.6642776279516523 1.232763334755627
H 3.9877383167115514 -0.1525161553178953 0.31220041678708227
H 1.5090550454047382 0.6233704744886926 -1.7136806804737106
H 3.1087575454599192 0.17240999018451011 -2.3042656708520135
H 2.485018720976745 1.8000277070983424 -2.5891926075111873
H 4.606051001622877 2.7871487332972675 -1.6425428214975308
H 5.0679059673868485 2.3703672738360284 0.07321545752588668
H 2.3499178336328623 3.517941701866534 -0.8300096159964725
H 3.303473929155429 2.6395782182479666 1.7971684797502134
H 1.856750612640065 3.3289175608758597 1.48515183247501