18

C 1.5962386997430598 0.9024821046563339 -0.9498835212734462
N 2.2464643768781434 -0.03600619705556316 -0.07461349894768757
C 2.9272749267481237 -1.1226302609048961 -0.7376198990935752
C 3.7065030089207784 -1.963075036542042 0.29563643365650166
C 2.8206258145524488 -3.1522661563380177 0.5318861278995151
C 1.8881270189464172 -3.25260505411276 -0.3995778616883623
C 1.9861173771837695 -2.1464012519161155 -1.4158254785250362
H 1.0944918861036301 1.6724893471330036 -0.3575453944549225
H 0.8488236683729908 0.47242766197392994 -1.6310071323421433
H 2.341352104549586 1.4016600021422145 -1.5713967905677995
H 1.58777294853284 -0.4011425231355262 0.6082392731754278
H 3.6020542899376222 -0.6717969575571421 -1.4686082978946597
H 3.898572621761763 -1.3646800108745931 1.196686121326137
H 4.68563472578623 -2.2762253214640733 -0.09167388661570328
H 2.9731029320520843 -3.848156394940853 1.3425511506124053
H 1.1421870195117758 -4.047245970962981 -0.4613863188071844
H 1.0180966500383704 -1.7048506020338816 -1.672569119940759
H 2.4006004147979563 -2.5333333135136686 -2.352571447624648