18

C 2.849587895836987 1.284541679289494 0.01913121231342703
N 2.4481753252763125 -0.09680529055198388 -0.09377785377432571
C 2.9829218212481097 -0.7801209438121028 -1.2675944421127383
C 2.4863847212114703 -2.228820593043894 -1.3360795003394539
C 3.6125946568636906 -3.090612212863975 -0.7388569988443906
C 4.812211411310925 -2.19476376751101 -0.8767868199957476
C 4.47833004769248 -0.9504310755521989 -1.1716222601293
H 2.3163670934629783 1.7544526981870772 0.8467475431099566
H 2.668166790240367 1.8801456393015668 -0.8965604815338457
H 3.9197135049243865 1.352515885495263 0.24434978024125584
H 1.4367761530505028 -0.14689320920363777 -0.1254882746692182
H 2.709416822158882 -0.22315674398699484 -2.187599167729804
H 2.3254385914824964 -2.5121935187655247 -2.3744018513540066
H 1.5371188358387322 -2.350384788296071 -0.8113830599332683
H 3.7318194300739096 -4.041701970438074 -1.2705860433164142
H 3.4395088740673803 -3.3323604628968564 0.30754948499854934
H 5.825357205416525 -2.5448496414153143 -0.7150258186849818
H 5.178792445731029 -0.1290644620445786 -1.3015524822038753