17

C 1.1654870835002442 0.14329332579676574 -0.06813869139108791
N 2.570546958675287 -0.12884520440024338 0.02815524153915218
C 3.11083136939069 -0.9015548119267284 -0.8196281464738499
C 2.5484897310792847 -1.6035676628898834 -2.0398432671678037
C 3.6823833913324266 -2.5051543727798657 -2.5128821274462565
C 4.934987927218611 -1.8155967565737743 -1.9837383290034105
N 4.447170972301922 -1.2238455914183588 -0.7604942348953265
H 1.0010509378989443 1.2239676181149723 -0.1240183848131086
H 0.6626556152370181 -0.1921886216916942 0.8496462003697766
H 0.649786781723539 -0.3170873896127099 -0.9177667499963356
H 2.3047245799025977 -0.845606279939446 -2.7914659241159674
H 1.6346739697100265 -2.143201379840786 -1.820600398560597
H 3.7111855960459827 -2.6484244276980102 -3.592125362923419
H 3.58880941610307 -3.495952663722979 -2.0551892512315573
H 5.303571723279485 -1.068097522261411 -2.700216145650917
H 5.755653022597541 -2.5158506807414365 -1.787636801663001
H 5.035249628115581 -0.6498685100002531 -0.17738853453161696