15

C 1.0876297859756208 0.05815607935498798 0.06386988397148986
N 2.522845710954541 -0.09846048137627757 0.0716516261420878
C 3.023350534625091 -0.7362009015079022 1.0342182371480741
C 2.375437008934821 -1.389553760819087 2.244453495176639
C 3.5350078670295226 -1.975129164314992 2.9944490045862175
C 4.657686090051924 -1.6880032045045763 2.3177280597465115
N 4.377277635074033 -0.9630543873592334 1.1685422723646697
H 0.7804915497265811 0.6267691718598442 -0.8199071964633816
H 0.7260796098172663 0.602087811528386 0.944777781447264
H 0.5582453606235895 -0.9014910001945823 0.04022173833458436
H 1.641931792952146 -2.1452484083764944 1.9178212738527494
H 1.8133608384174629 -0.6481895649081933 2.8163809680422425
H 3.486324774852365 -2.5173809201735464 3.92077739884284
H 5.676634239200784 -1.9362250613927314 2.551624152112471
H 5.044658436646714 -0.6309910922535198 0.4954042887931064