19

C 2.169797448221822 -0.15239485989507032 -1.244901493650185
N 3.1328124701900757 -0.7871956569241895 -0.37793966201509743
C 2.648220953977108 -1.1440319872781037 0.9453863327608005
C 2.132396789223516 0.009693704323405317 1.7757155505107876
C 3.6090702607139176 -2.053902961172024 1.731153520795118
N 2.564642703839352 -3.087946685330615 1.8903460578496576
C 1.6850463971711884 -2.354633309895621 0.9599224487343075
H 2.6275008619237803 0.0024309931407800007 -2.2256526929647324
H 1.7850045734171658 0.8083218936499029 -0.8932581685196279
H 1.3219626126470092 -0.8271147984163341 -1.390802489220125
H 3.959077237635469 -0.204657692754222 -0.2822279523858493
H 1.2846419573809478 0.5060694141564027 1.3090994324660585
H 1.801337486319557 -0.33584207437173635 2.767792202517489
H 2.9160791167790423 0.7595013778828401 1.9302544039534673
H 4.007193557148049 -1.6377805303977653 2.662767278925334
H 4.436911982474287 -2.4202795852429384 1.1168686681436055
H 2.1901864837391716 -3.087181100054963 2.8313918753784533
H 0.6693025622956728 -2.1652111735189385 1.3110169245924423
H 1.6389840746310718 -2.872405864475565 -0.009284932545657635