19

C 3.151738269829967 0.09558406575899835 -1.205848255096006
N 2.3264527212040154 -0.007736125436804852 -0.011855551292381018
C 2.8751600624335065 -0.8751451618356583 0.9859066245348874
C 2.0149854483413447 -1.1430862771386998 2.226981207678859
C 2.5341969151998494 -2.592216411482336 2.2585249227259157
N 3.5610866270257873 -2.7838235503417996 3.2672858344089217
C 2.9873507022369212 -2.418864548938601 0.7872043013468558
H 2.6552601826112103 0.7408719194677394 -1.9391228309421453
H 3.376260689325612 -0.8595298830315006 -1.6861117280170688
H 4.103875944358862 0.5645392733194646 -0.9415125861233429
H 1.3969860294754797 -0.324707078323784 -0.2650876177395371
H 3.852341493082501 -0.4655315800697608 1.2766215076882212
H 0.9432873540366509 -1.1027318007680174 1.9687500069842716
H 2.181022846432694 -0.5316141267241912 3.1235863751132125
H 1.7669414167169477 -3.358004768659654 2.419154931060195
H 4.278946201253453 -2.0619591947467915 3.1850942830421585
H 4.025197533819398 -3.6745315781088426 3.1343773923456753
H 2.222552985803112 -2.768463191274741 0.08554297253583411
H 3.9497329625772295 -2.8453166131004823 0.5114267578758185