15

C 1.1361006190044851 -0.14709316887732507 0.050442467903746895
N 2.568583070167516 -0.0459470298881115 -0.0642420543178753
C 3.1463186277414152 -0.8155439216365038 -0.8934463008233903
N 4.505961914184195 -0.8124445213413871 -1.094939687589191
C 4.943118324267087 -1.7745315568412958 -2.0679667242786364
C 3.647821970075217 -2.397832897464804 -2.476309024308221
C 2.6298928879699264 -1.8608983002252353 -1.8103206352386663
H 0.7832588289498265 0.5729854938431175 0.7932268558060062
H 0.7933483477817844 -1.1361718920880324 0.3953582032207355
H 0.6101436309804458 0.07766817063779065 -0.8820757401315503
H 5.113262564708663 -0.19908978055796933 -0.5852583313820416
H 5.629354708354418 -2.5181447529669705 -1.6547454781894453
H 5.445828856701196 -1.3058459412518628 -2.928194432669613
H 3.586733808510048 -3.1847118717131777 -3.218837426177289
H 1.5922260534990902 -2.117166117544769 -1.8896517850897332