20

C 1.2342948729053058 -0.8377279561777782 0.4522041245866829
N 2.6578004208760353 -0.6232843884346242 0.3890945356819037
C 3.205982453139207 -0.05201039011684081 1.5972510505775535
C 4.697456928114714 0.1756834799384381 1.4884864627964087
C 5.474580520410552 0.6214827378826082 2.744038785337801
C 6.630137767033452 -0.2896258334748379 2.297687868987206
C 5.6412637636569904 -1.0380827486618471 1.3923531782584653
H 0.8684584722238252 -1.2096559677855145 -0.510474436448189
H 0.6495870409467198 0.059212769570470086 0.7161449129788682
H 1.0125665711808376 -1.6051736379330686 1.2097117711680647
H 2.8801345247886423 -0.02370445992366607 -0.39415303841084043
H 3.018371350694119 -0.7565299787545113 2.417043919605184
H 2.71180065009936 0.8942060777998254 1.8863134379808162
H 4.903423569702706 0.8718541176683118 0.659355247245459
H 4.987554554752052 0.23859775170963157 3.6430421294294524
H 5.666362835479895 1.684499693568085 2.874345365976341
H 7.151765971685517 -0.863334444817943 3.058062553320757
H 7.3728092166220875 0.26340781785565603 1.708872922169071
H 5.204875250043562 -1.902553998297585 1.8937794031979303
H 5.9755314871975465 -1.3548820371912516 0.3969008358682773