20

C 2.508791871474015 -0.9211160129814425 0.8223838004788592
N 2.2119491637798863 0.21619850841772534 -0.01143093419476587
C 0.7918398782590719 0.3542178479531195 -0.23888862172035175
C 2.8880156760317437 1.4151076777598648 0.4262229606568383
C 2.883626427411595 2.668462312565575 -0.44655652024902626
C 2.9715678918606754 3.5011213686860674 0.8487071024917053
C 2.406842323202183 2.2894730154151692 1.6192979077431766
H 2.0962663791225804 -1.8281175285581117 0.36958327517689443
H 2.085520307342269 -0.8338653589938834 1.8469290949279573
H 3.5856285660600413 -1.0497661553263093 0.9159871261673181
H 0.42072727626181095 -0.5520507708749935 -0.7250500513469472
H 0.5868693134515702 1.1972162531880295 -0.8906317240707671
H 0.20641612134068646 0.4896035023432434 0.6938961371763185
H 3.929186975568531 1.131729505293321 0.6148510890590454
H 1.92196409140253 2.8231023543391123 -0.934050744473771
H 3.682388538382149 2.774470221485941 -1.1906950505671507
H 2.4193146778096684 4.435906684485928 0.8862392670026836
H 4.008537746879688 3.7055083199242254 1.131119070971774
H 1.314878272418308 2.3387210664919267 1.6548153110629578
H 2.7914444743217017 2.083437229133947 2.61559345252241