20

C 1.2978661107432576 -0.45390355655200604 0.261330200952461
N 2.619266617896508 0.09962692105354819 0.158605282119976
C 3.630157445443176 -0.9287134269348987 0.04187309064744044
C 2.740602491610773 1.1444494885167134 -0.8207668950536452
C 2.5258990504085235 0.7855353806458542 -2.2755981000091485
C 3.7473186036092594 2.20431043218928 -0.49382549781729207
C 2.2817338174439388 2.4937149754621606 -0.35120711767261864
H 1.2318460997355996 -1.096967801891284 1.1453119337492108
H 0.9943341688107115 -1.0684523456446575 -0.6009316253733866
H 0.5628148319684201 0.3475502782036492 0.3808523858730909
H 3.606052000116887 -1.5737207456351592 0.9171208260880672
H 4.620707046382066 -0.4670158608822736 -0.010674276662276747
H 3.50903143084933 -1.5730343104016382 -0.8460817293193522
H 1.5229336936099989 0.3923729895516024 -2.4435364355898495
H 3.2523222446761895 0.039814625890056854 -2.6072222408696812
H 2.63862246839387 1.664112626646997 -2.90732583200242
H 4.295000509787126 2.6541147369360663 -1.3188752359357838
H 4.319946335895874 2.0755285218600847 0.4176462653732549
H 1.8191357374702535 3.150403044399658 -1.0794860128547017
H 1.8942911796794648 2.561313560510131 0.6468905159365091