19

C 2.609133015548871 -2.1467836373555045 -0.5420830909763249
N 3.857663695624183 -1.4342965733308677 -0.6090255743619963
C 3.7062139474833193 -0.053463713408693915 -1.0087631149152299
C 5.013736870821765 0.719118832490115 -1.0641761353573065
C 5.941241040958674 0.5547707046124476 0.15195688229078275
C 6.847982464343375 -0.3047951078468844 -0.760063919572434
N 6.075553764979092 0.16326460058038286 -1.9219442704923486
H 2.7882428241336035 -3.1930166599033716 -0.3043071441621593
H 2.010426991856858 -2.099516663792358 -1.4636676937763375
H 1.991297058913018 -1.7310942961761004 0.2677197350089759
H 4.486401458814111 -1.9052052156801589 -1.253567973209183
H 3.0601883017363334 0.4449077264610343 -0.27438790801004814
H 3.196113565882694 0.056709393233609795 -1.9831664576184627
H 4.766655081260469 1.7523851818096328 -1.3200542895513243
H 5.509561106585283 0.03427595021461582 1.0152927972972778
H 6.4120899238251035 1.4874682273096222 0.47821255945637553
H 6.763360326113401 -1.3769467906820938 -0.5446852696272964
H 7.9040162116556045 -0.031438878497664614 -0.7975205766961364
H 5.792066577589037 -0.5379299723707778 -2.5960418812403234