19

C 0.9508282105916295 -0.40149877667454015 0.07866700853584874
N 2.3629631641017723 -0.1830508518555675 -0.13589176005634798
C 2.959085829897359 -1.1732490244542015 -1.008393778838477
C 4.364863753945481 -0.8523134501730456 -1.4448047013436398
C 5.1548224807994965 -2.05028638615009 -1.883989634083972
C 5.099951227323849 0.30328187785633426 -0.8792450061033954
N 4.516853381453974 0.3832582928071632 -2.209395968210966
H 0.5665464958777244 0.33464280534654867 0.793954697616288
H 0.6882823491925673 -1.4079510924333019 0.4498762146263904
H 0.41379438105423494 -0.25102052956794535 -0.8675627837348658
H 2.844116137123236 -0.18584709316779324 0.7466361534802268
H 2.339403995907647 -1.2532999198579973 -1.9117031038376175
H 2.953298535526013 -2.183300364365225 -0.546904405867173
H 4.660976431314183 -2.5590589556269756 -2.716715153946546
H 5.2635929434426885 -2.7809806377247157 -1.0760405723421829
H 6.155584133690529 -1.767327940434317 -2.2188561853215805
H 6.186117258260241 0.2133303985030911 -0.7860683515797182
H 4.626948781391205 0.9494729711383925 -0.1465635865661391
H 5.238134183731298 0.2660981642933298 -2.9147209193397754