19

C 1.5852844365051753 0.9503277446592888 1.3038713566126305
N 2.891814920274944 0.41798943446988934 1.6305529292607743
C 3.7124227566560446 0.15474938750054 0.47633352371914983
C 5.05407473654206 -0.4121143116552897 0.8699194569960205
C 6.142783120624631 -0.5497876701319647 -0.20392461157729222
N 7.136033557113608 -0.08356357143597666 0.772533348889293
C 6.054833047413618 0.4987537759694474 1.6037873242716132
H 1.00197808460245 1.0772257279195272 2.21025743516276
H 1.021124387293421 0.3147550489203946 0.6028598419443115
H 1.6996275412612962 1.9288587452644077 0.8410976683194713
H 2.793303813649091 -0.4212990529676 2.1836819140133796
H 3.8670431253845967 1.0970419713948434 -0.06575739501057919
H 3.2303263624955347 -0.5390770863192333 -0.2510772663917774
H 4.934075173824278 -1.3584986409633781 1.4074156668062985
H 5.970098678902391 0.1361262555959988 -1.0379299140717546
H 6.3393566718671455 -1.5527992965833017 -0.6095514676518156
H 7.825100526673586 0.5730451582465728 0.42451133146169845
H 5.849481896887905 1.5576903512958666 1.4052977577460193
H 6.179780247419801 0.363919993326329 2.681214429816971