19

C 2.389898923606764 0.5875336298535954 -1.1041999978009054
N 3.5701354982943516 -0.1258370839363107 -0.6773729029454562
C 4.123132791516795 0.3659767255874016 0.5696415932032276
C 5.384557538782762 -0.3530846024587775 0.9224708442315168
N 6.653771025990651 0.0728458096543926 0.32396595703369846
C 6.420406611749237 0.2909420885408236 1.7555487266386662
C 7.27808671744141 -0.4746437640855808 2.712180450588112
H 2.0523420790208724 0.20737026069138684 -2.0687867956698147
H 2.536470490842832 1.6811932881918104 -1.1968333371699273
H 1.5883499355419066 0.42747964595159066 -0.3822824157420828
H 4.281606406817561 -0.09905844979973122 -1.3964853769887782
H 3.373370997128707 0.2031738502377766 1.3491990060954053
H 4.310061712719166 1.4609850638983135 0.5543213752118822
H 5.289354228199032 -1.4296431159824114 0.9869619090257845
H 6.519492174117761 0.943065742950262 -0.1879848063693029
H 6.201355945732585 1.316840725691201 2.0473612922015287
H 7.448257736051662 -1.488521233655189 2.327916448130194
H 6.7925006053566985 -0.5583772543341482 3.692194368386225
H 8.24176503876372 0.005554345138855577 2.8390542464146487