20

C 1.1452353227348402 -0.7444096479202271 0.22880983885678688
N 2.529792229950879 -0.7118824608895103 0.6564720652234171
C 3.076231508495935 0.6208311072376337 0.858904458577491
C 2.4777805034212177 1.274763854992939 2.094822140293929
C 4.573130653447386 0.5208100065008641 0.975031497497898
C 5.409970876895572 0.44568019810690246 -0.27287406322837404
C 5.441551095965479 1.6741484112503335 0.5808466859404089
H 0.8734107233193228 -1.761964785965131 -0.03707020440775931
H 0.9330186276786661 -0.09109641936671084 -0.6360905086855954
H 0.487677818578039 -0.4412603855856208 1.043837105422075
H 3.1122352630354846 -1.1851800462275817 -0.024049300095346993
H 2.854622393681498 1.2785108013068875 -0.011455225801713079
H 2.6696343530195272 0.6484475951750279 2.9714254205594726
H 1.4025213266227379 1.4103625570584677 2.002220623442048
H 2.9289796576282177 2.2602112267148247 2.259612512936334
H 4.912021561181054 -0.07303671173799164 1.8135951159149695
H 4.8992655193716965 0.511189004450442 -1.229107820292791
H 6.2850222074305435 -0.20155824691543686 -0.2742415917730123
H 4.944861939768893 2.564316098255807 0.1922704448850452
H 6.3295894772864765 1.8772956281577444 1.1673587531871112