19

C 2.2450317811501264 0.46473181956729953 -0.9060340109323433
N 2.945334160768866 -0.1560809227448806 0.2029300097560286
C 3.3800878065550175 0.7905704441458727 1.1988695083735663
C 4.122052470559519 0.10898244720837194 2.325114882651551
C 4.589458622188258 1.0615444293345542 3.39095997952582
C 3.735716884558646 1.3499667794946095 4.559653767272898
N 4.96192435946371 0.5655234571650923 4.711957410368752
H 2.0035354669797036 -0.2929117635974811 -1.657290689405546
H 2.806911047097887 1.2755161323742967 -1.3971466624063102
H 1.301810549130774 0.8938528696891871 -0.5478778093029318
H 3.7511881849842466 -0.6658828282027244 -0.14826603660811394
H 2.479214110277583 1.2904022655149034 1.6104569735044274
H 4.0023471958782055 1.6035889012395173 0.778969124867759
H 4.994472660538813 -0.4255173874904672 1.9134397026060541
H 3.4722140672081587 -0.65766460442723 2.769119552676629
H 5.247304536015868 1.8581517033297665 3.043310999206223
H 2.787001279373741 0.8255359457973219 4.619800803287171
H 3.7572538938898874 2.323008601866098 5.03120634811115
H 4.735902353777987 -0.41750836712081657 4.7847534728796095