19

C 1.4587320248837474 -0.513165116676048 0.5705938141759782
N 2.880884968069936 -0.24826903690132152 0.6885934580142943
C 3.28600910425281 1.0984952841332203 0.29711313642414766
C 2.4747325754837424 2.1600509655163993 1.014123953847928
C 4.759128608490747 1.3204582332802801 0.5966682013533161
C 5.340568106146217 0.9714257892575926 1.899220612468573
N 5.734916193898754 0.2365591294011102 0.6915258401977783
H 1.2929498279548952 -1.5809301918847536 0.7154094866377014
H 1.0257793713626546 -0.2302599715422 -0.40584566969236024
H 0.9021885659307489 0.013988020059491083 1.3475617303646044
H 3.3619198197520834 -0.9057595577455233 0.08443433017757383
H 3.139495321559058 1.2467139229427244 -0.784534664507449
H 2.5025284408330544 1.9965208941090604 2.0971000876460106
H 1.4346350102055518 2.17807076221391 0.6994560117193794
H 2.895890597886996 3.150584481716234 0.8065964173410636
H 5.162613459215687 2.1932614802008583 0.08917473938572795
H 4.688541793640345 0.45380003130327856 2.6081282749268118
H 6.11783944076521 1.5869298031555459 2.3380668384010415
H 5.258588128798984 -0.6623281142324745 0.7148539833302576