22

C 2.908561644046866 1.3421232344507052 -0.1235265640813333
N 2.471524294272085 -0.025965956837393694 0.03171712196518093
C 1.0324793824479566 -0.04837267684783022 0.2207179862939223
C 2.990114550072253 -0.9676022125658496 -0.9846719821872882
C 2.5613059532193154 -2.384446880630851 -0.598194881597346
C 2.5012126998195905 -0.6706488549587202 -2.3986588420249295
C 4.513760336032502 -0.9329131101165274 -0.9498763807046483
H 2.570703889741964 1.924026633814058 0.7395984480406691
H 2.5132905496187563 1.847153797118027 -1.0314848152738143
H 4.000210066477615 1.4086749501255773 -0.14741351989856713
H 0.7773405108757488 0.5916013731896906 1.0652862294666612
H 0.6877039806583642 -1.0585453181383044 0.46278103312350877
H 0.46197140293531397 0.31938170191977683 -0.6437263096375556
H 1.4904733314063365 -2.5550025017450793 -0.7372281945782008
H 2.811980466216682 -2.585590446936586 0.45342461789708505
H 3.0806802549505523 -3.1109085903654465 -1.222312277039382
H 1.410170293078069 -0.7224750949418001 -2.4716075340839994
H 2.9127337799324433 -1.3906829000628624 -3.10597664394313
H 2.814933086791148 0.32637150423154104 -2.7315088791722677
H 4.881918241526905 -1.0461359872114293 0.06474755153647482
H 4.916201120716227 -0.005030528875312069 -1.3661147811380798
H 4.91478092928758 -1.7492590366066871 -1.561548263596116