20

C 1.072880592185789 0.14314436281211665 0.11546752755660683
N 2.514963643900702 0.09225046334334144 0.15249523812247626
C 3.0310147828964507 0.746956182654271 1.3347571102401656
C 2.998404492494689 -1.2698366985263008 0.005296041731142751
C 4.482887230965863 -1.3702662364461178 -0.28863724816936875
C 4.912476236585279 -2.779283877428001 -0.509315664368352
C 5.460077451122288 -3.2479439224161593 -1.6221631424587115
H 0.7380904989802924 1.1874626601030371 0.1568150986419855
H 0.6031267046646297 -0.39641320944210645 0.9648110220614249
H 0.7115174577709034 -0.2962497966380558 -0.8071251334173315
H 2.6536920693607953 1.7626476882112228 1.3863660829895574
H 4.113968698109031 0.7911165378398769 1.3138836714381095
H 2.7301984523347227 0.2251200465311766 2.2668015483262276
H 2.4456171889393885 -1.7211413493595924 -0.8217423296352845
H 2.7567565896216064 -1.8773676846410103 0.9090432465921586
H 5.0593557085055 -0.9527382887379265 0.5450819981562267
H 4.712883815760055 -0.7622719682936134 -1.1750762238340131
H 4.7451512618870515 -3.4659611419355976 0.31682694410839085
H 5.644340800271495 -2.601584662964186 -2.4782171532370763
H 5.758055585795539 -4.290972519614706 -1.7239297618885718