18

C 1.0884905105377123 -0.05362081162038805 -0.22720756748571436
N 2.5033664786372665 -0.23300684603401334 0.013858153810067638
C 2.93273314029352 0.18877173128556396 1.3311159815218552
C 2.4036822343602466 -0.7703379104671934 2.3753349475716035
C 1.6883125379716428 -0.4098583720124743 3.423724024544647
C 4.438007261304669 0.18358642690133795 1.3739115552023775
C 5.187305636873546 1.244163402455616 1.6280666975644909
H 0.8534165939933187 -0.3456710682225401 -1.2555729441627221
H 0.7362245324986968 0.980284897166235 -0.07245523503552563
H 0.5121354158141199 -0.6997009237342775 0.4333187445761735
H 3.03924201125302 0.267833519905215 -0.6771464637991267
H 2.577264364340695 1.1954380495222798 1.5851913549415524
H 2.6538675719159204 -1.8078542501791661 2.208520781671566
H 1.4195458114795758 0.6302987663616388 3.601282536494383
H 1.3406968207314631 -1.1345395183865608 4.153186004467501
H 4.900036273323393 -0.775067230984905 1.1539371359683563
H 4.735377950528883 2.212049223340238 1.8447546921451856
H 6.264896408624777 1.1869699550092154 1.6486161136905821