20

C 1.2321715287192738 0.40369067409770626 -0.14634792792162293
N 2.5743773444170364 0.4414395674204729 -0.6800644353285481
C 2.9704674280804015 -0.7576042159712904 -1.4189108487965603
C 2.191234475773087 -0.8705730404755588 -2.7126822694849295
C 4.4416325515169985 -0.6774980150565956 -1.6891624733822672
C 5.345167586848374 -1.557440337990758 -1.2612567561885255
C 6.804567345886299 -1.5038825225775379 -1.5427579458760332
H 1.0925050980782307 1.2635944823393617 0.5124937927220263
H 1.0077773956350229 -0.5126564763806222 0.4207441491336643
H 0.49351755491219773 0.49183346746711526 -0.9541529952843821
H 3.2378684573217713 0.5903231472353232 0.07244508585538764
H 2.7834545635564902 -1.6651136870952907 -0.8175517692238764
H 2.3534510628567378 0.01314673289310046 -3.33527130677872
H 1.1218367014198096 -0.967770773549744 -2.5341610739968785
H 2.5211572577448593 -1.7507609011256748 -3.278855670920585
H 4.768105367630709 0.16956181796043474 -2.29313889657522
H 5.000114738245571 -2.3973055055214303 -0.6624613539546889
H 7.057879484378386 -0.6296807412376494 -2.1410986431872687
H 7.138167743233261 -2.3936566215860813 -2.0786766835484958
H 7.378033841142737 -1.456261572763086 -0.6087867703923245