20

C 1.2569439497752226 -0.8225757632019176 0.5243336657342506
N 2.5490772759769396 -0.7967138895949742 1.1640903132445959
C 2.9676959277027364 0.5106263162223288 1.6560295610381626
C 2.1096990409722243 0.9437561952336565 2.8286542458120283
C 4.449055164881381 0.4267911806243769 2.048231895485213
C 5.050563370881203 1.7431776519250566 2.378040160406609
C 5.644404805751908 2.0469812480717278 3.5260589515967613
H 1.0978355505351602 -1.7918781170081888 0.06247809651838757
H 1.1307088945312744 -0.04705720619922476 -0.25492099064721163
H 0.45899244442323495 -0.6870290250883484 1.2592837893937128
H 3.2518246043467993 -1.1419285554563126 0.525205958331272
H 2.8745524717252167 1.2748535461294974 0.8568265428246571
H 2.1414211045533333 0.1980159415608168 3.612438054142966
H 1.065019909692597 1.0926068658064512 2.5292092292627752
H 2.4698137925263977 1.892561466206965 3.2317266293753284
H 4.993310682565792 -0.014689748373288047 1.2064715071039038
H 4.556116489279541 -0.2740116203581898 2.884688391702473
H 5.003784265363948 2.5079129555166264 1.6043022123350483
H 5.719373467739032 1.3240004423794363 4.3320458833171855
H 6.077485792799543 3.022525460257601 3.7039561800594774