16

C 1.0264289812023122 0.03536533967432858 -0.1359158111825686
N 2.4674979433839668 0.08664671675474477 -0.0847364178062654
C 2.975247570550067 0.502989343164026 1.2009408381856017
C 4.471297690307908 0.4980248089837462 1.2172102350369007
C 5.217303881883605 1.5405928980416779 1.5667313811686006
C 6.6297792078814775 1.5387463949088371 1.5977532989644525
C 7.835766701701369 1.5659466457448865 1.6383932865744588
H 0.6990212649307622 -0.23558073027287635 -1.1486293493411823
H 0.5305955637586214 0.9828898266618522 0.14168177860684497
H 0.6640854193839775 -0.7443474921813082 0.5414988558230832
H 2.8177967380057103 0.7071066874459759 -0.812234717362891
H 2.6126444331624197 -0.2109832189448979 1.9436637076333882
H 2.6079880538696223 1.5042499166672239 1.51100388975851
H 4.943809877793997 -0.4300549922003811 0.9077365593616031
H 4.733124902511244 2.4674079469978407 1.8563598716245164
H 8.901036934692613 1.579868398054743 1.658727430438868