16

C 1.5608839946438602 -0.018437723016848432 0.07145954306683178
N 3.011059103271846 0.014052070923015258 0.14956065062579751
C 3.6025066707441207 0.8925590486094989 -0.8241872629160797
C 5.0974040304630135 1.0290028263661737 -0.6694879658371662
C 5.77282492572095 0.5412575863365153 0.3682666501482965
C 5.755512124975909 1.7315116635889234 -1.722576994668736
C 6.25996336999623 2.3345014467293854 -2.631336950747798
H 1.1715472149983095 -0.7448215016608709 0.7863102906580034
H 1.170572677185477 -0.27325449782880756 -0.929157181541144
H 1.1601460937608346 0.9573103034349855 0.35184265946003407
H 3.385466464642776 -0.9198039574263562 0.025114024543813708
H 3.162817675077211 1.8980716706507026 -0.6970334975434308
H 3.3913929378027405 0.6072907159274519 -1.8680438751823873
H 5.2587134941597675 0.030967926363262108 1.1719734482733812
H 6.854055229793893 0.6517158630761065 0.43978084386969
H 6.731943469149311 2.85951361606685 -3.4291738986899616