20

C 1.2932690570698244 0.1813129860458692 -0.38062149164609177
N 2.7198628003535728 0.13232550514630897 -0.14874840576922704
C 3.208413897427851 1.245619365948164 0.6248045167202793
C 4.695504051267186 1.1310229390062405 0.9512473168248609
C 5.549457056506665 1.1015525676379267 -0.3108591773721549
C 5.10329620434051 2.276158475579633 1.8266533311108577
C 5.563228567934812 2.1701553441167944 3.0711724291596365
H 0.9845223265359826 -0.6530044167227393 -1.0192559634372786
H 0.9420337175104857 1.1200177437188852 -0.841831015087284
H 0.7599170348852095 0.0769928706174638 0.5709730959275429
H 3.1959858139409483 0.091114192483099 -1.0350836700173933
H 2.6433324863213676 1.269462167507596 1.5694543548488837
H 3.011758953539875 2.2200295823299263 0.132244633695003
H 4.838954174433703 0.19429217504249052 1.501383935944072
H 5.38727542628507 1.9927868364277417 -0.918246731198884
H 5.326841540123323 0.21513068202059643 -0.9255463373225851
H 6.610193493465101 1.052629877052844 -0.057257938588081314
H 5.021185929563821 3.272319525323236 1.3783144394513578
H 5.671629651504602 1.1941700284286558 3.5508034420618215
H 5.845874986963924 3.0357584298538827 3.6464247951969133