18

C 0.8695367017990174 -0.022945899591586886 -0.0697882969712045
N 2.3172143866428563 0.03793868558424852 0.0007044275302945215
C 2.894754051648975 -1.1150697056262344 0.6704117120795481
C 4.425146266440374 -1.1055814842596445 0.5883682593093991
C 5.040947792004677 0.10653530300023126 1.2770376735153621
C 4.954011380933076 -2.3463509599417613 1.149566552862723
C 5.372460800326021 -3.3630063907532297 1.62680648058404
H 0.49149363850736316 0.8899654824424522 -0.5323397408454854
H 0.375020910724604 -0.15329770926172437 0.9079872837727093
H 0.5711756732155373 -0.8610553997759244 -0.7009250273590799
H 2.591688325143385 0.8808902904717356 0.47900833502581014
H 2.51582290125898 -2.0092697292250916 0.17536684269347608
H 2.5924871817038255 -1.1949955652539392 1.7335324624059822
H 4.681950977950321 -1.0706755947719924 -0.4785832747680853
H 4.742191386155609 0.15022395917362663 2.3231983725496477
H 4.737125486906131 1.0308058693121303 0.779626291726733
H 6.135787384548127 0.05296041537633321 1.2423394064208906
H 5.749956144837263 -4.26302389280893 2.041178101453879