20

C 1.0721115686425087 -0.0849800092234316 -0.03961085863928364
N 2.504845259859583 0.05145536688802124 0.05145964666529292
C 2.9575010929903303 1.4239989936013353 -0.11484621069180666
C 4.484135152483041 1.5131439357143914 -0.04167028262613958
C 4.976950875773059 2.9155645003805075 -0.10268160440771684
C 5.786019492210348 3.410898795113825 -1.0381741022001172
C 6.273664018344801 4.813046798628343 -1.0905742783023582
H 0.7908647725242737 -1.1363972167638798 0.03306213268180979
H 0.6372530021979721 0.32888254904162484 -0.9615234023375245
H 0.6015766528349017 0.4414155588451012 0.8045437349923442
H 2.947698785968688 -0.5292904254669232 -0.6462769166306562
H 2.524237224226187 2.0160221042426425 0.7036561190061488
H 2.6076293824407517 1.8829839724921502 -1.0509710766944056
H 4.916371255001482 0.9318903605888961 -0.8669952331474617
H 4.805209561379092 1.0344012342114868 0.8928808329812619
H 4.637905767664035 3.572366721471847 0.7016426724090573
H 6.1122373364072 2.7448242159227583 -1.837677900323483
H 5.886986598591648 5.404564736875263 -0.25951576661239895
H 5.983291167816622 5.301611839676324 -2.024489993072733
H 7.3756893565932184 4.841806402763598 -1.0564084741488486