21

C 2.1544395520028425 -0.5861924026482099 -0.8122875852525868
N 3.4043913431319757 -0.13669158610035878 -0.23903579348297774
C 3.2906401737341895 1.1190957939811468 0.4580327421648326
C 4.624758737483227 1.5792345906215968 1.0057868880095997
C 4.538336378903713 2.888301093431304 1.7807590157975295
C 5.878904322637484 3.342331477061369 2.3219777168950047
N 5.751295626695516 4.60683359775259 3.024334786140657
H 2.3106921964479668 -1.5061162803293084 -1.376929369419512
H 1.6744466927096313 0.15569651260010145 -1.4849804642903885
H 1.4431675216205266 -0.8093855318885939 -0.01387363277106048
H 4.09871994654827 -0.06106831153492623 -0.9634392068123087
H 2.5868030827629616 0.9743761506691425 1.2926576103793246
H 2.8509337946660898 1.9233434359726918 -0.17062066659773978
H 5.325258330189922 1.7064896899795694 0.16576737379649764
H 5.037966899564289 0.7898109139533822 1.6356174836413206
H 3.8386811629922395 2.7585588153155545 2.6128642949910352
H 4.133573356612849 3.67500492487651 1.1494928426164783
H 6.567443215305305 3.4999632285723794 1.4830400110335893
H 6.31602134484232 2.5394709755489084 2.932343630759198
H 5.157086372218892 4.501078317766764 3.832676266988544
H 6.647952367776448 4.934786756495338 3.3561156082211383