17

C 1.1495263184197337 0.16213728453538032 -0.10658067292028285
N 2.58486964490651 0.06911279871878072 0.036565731935080684
C 3.153940824043116 -1.1897331682672614 -0.0929238195658488
C 2.4892555746436797 -2.3423814201657294 -0.20780060722320914
C 3.365365421780688 1.1574239843244634 0.43566662184889754
C 2.788281232563204 2.5270635824441756 0.20319106808472712
N 4.53322089817529 1.0878695857381127 0.9327529860458887
H 0.8459378169511408 -0.3291744561260015 -1.0341722984721249
H 0.8339363731453627 1.2012572665516885 -0.1365993835345838
H 0.6360298878372297 -0.34085862818190565 0.7251409361001995
H 4.2269702300486784 -1.1806301182596806 -0.15432580579809235
H 1.4178989107095712 -2.42940150350801 -0.14506166563260667
H 3.0531369504538035 -3.253708338440168 -0.363034705141371
H 2.397078188296197 2.64055909455403 -0.8140066585172975
H 3.584457272542688 3.24192038538655 0.3743045189933092
H 1.977531806980431 2.7404524612243386 0.8979061183226728
H 4.821104054020746 0.12923790577938452 1.1263541644270054