17

C 1.0141483618509053 -0.2259509403748625 0.032509453675019076
N 2.3303158148038645 0.30542632670715186 -0.20575791124245613
C 2.3575928731687497 1.0860522173760796 -1.4252016672289227
C 2.819023966137561 1.032027257527359 0.9389864905456272
C 4.336862943099977 1.2474121676564327 0.88126866324793
C 4.832748792857753 1.8739552941495217 2.0929327336797963
N 5.21580859996355 2.3708083878214774 3.0544429107357716
H 0.7005925552032358 -0.8335954031752287 -0.8176561671889296
H 0.24911273147781218 0.5555029858447902 0.1956951181276227
H 1.0211429730219448 -0.8731942344222483 0.9121880241756463
H 2.0065463231934255 0.4856174188804081 -2.251775361752879
H 3.373035849017172 1.4173970123000048 -1.664871484579495
H 1.709869835123694 1.9842101837189854 -1.3574766961409614
H 2.5898002108946354 0.45366168360474146 1.836792047744877
H 2.317991492525213 2.0109524534977745 1.0626673725961102
H 4.616860828816603 1.876147840430967 0.03340251834495135
H 4.827039291990284 0.27965231224424036 0.7497254153690404