15

C 2.6720658462517903 0.015151175920227244 1.0976017904322617
N 2.408892413199485 0.12810470288567571 -0.3213603312333399
C 2.91239968913754 -0.9632903955902655 -1.1195179406059714
C 2.4787304797254577 -0.8848915536936031 -2.561845914016893
C 1.556618363765355 -0.06259771701178446 -3.0207894201696037
C 4.386445956873614 -1.0912386285027864 -1.0478706034090008
N 5.537628045692404 -1.1504811408803133 -0.9616379152264272
H 2.273957869392614 0.8891675495525241 1.609587249798514
H 3.7332305284399445 -0.07906681402563293 1.3521755299940938
H 2.1467306892853335 -0.8620499264516392 1.4906276546446415
H 2.777736337883395 1.0016751628235958 -0.6859820139839006
H 2.5127594594964036 -1.890887496679508 -0.6867852645853522
H 2.9950891986577974 -1.5728906632757302 -3.227844022166512
H 1.0292029783502954 0.614280626788343 -2.3607693339888876
H 1.2775104872444647 -0.0727933396755436 -4.067433653009421