15

C 1.0469661341857246 0.06917136136219636 0.41156205650976113
N 2.439124359309999 0.0769810027416186 0.04968451525455746
C 3.023857237860153 -0.8290661551613087 -0.7784427043875346
C 2.1247444357885064 -1.645424068477648 -1.636497075447212
C 4.374463947933997 -0.9462767324043726 -0.8422493141666032
C 5.033532260929175 -1.8235592659570345 -1.719983484751502
N 5.580055980932892 -2.53728256406799 -2.445421775176299
H 0.82772387311983 0.9915482733447937 0.9498971395972453
H 0.7677878511880135 -0.7728327521311981 1.057363996935488
H 0.4127742473613315 0.05419818674994105 -0.4669664082271901
H 3.0607614077680942 0.5547372575101146 0.6775332851992157
H 1.5073906481339312 -0.9989619419940853 -2.2688037470446014
H 1.4417940433643572 -2.247877324491722 -1.0259569498385521
H 2.697135022449184 -2.3100083078392655 -2.277699128199457
H 5.007476208070283 -0.3434995965601746 -0.19216006562935875