21

C 1.0263184724022745 -0.023800757387292603 -0.0317149702653984
N 2.435255129888458 -0.09169776137872218 0.2720340046654389
C 2.8572835585808747 -1.0671364976339752 1.283193312686734
C 2.3841692913422996 -0.7000814943928247 2.6863002073839004
C 2.360046686559209 -2.455786829980669 0.9044031753638065
C 4.395607134861445 -1.0742393062755455 1.2406231514863366
N 4.947434809043548 0.2639112889473645 1.3576822041711967
H 0.8446718693147561 0.8251953468065152 -0.6938604285727262
H 0.35604781859733264 0.08503515439645523 0.841125229612041
H 0.7057384361459289 -0.9179476244841552 -0.5768723137718258
H 2.748392488793155 0.8144508695864461 0.5902116867477987
H 1.293337692083641 -0.5820853228136279 2.722631833084689
H 2.8413955327235585 0.2410614078327522 3.0013893827698706
H 2.6485371724305824 -1.4667431031879392 3.405420185600737
H 1.283157278444199 -2.5490238152684443 1.027031827981858
H 2.832001404415743 -3.20457539680853 1.5431349712162465
H 2.617236128450448 -2.6883453873349445 -0.13687823425667395
H 4.706027063753114 -1.5920429238007314 0.32324232270946873
H 4.746832215281251 -1.6774841594652559 2.09439647626173
H 5.041736409127191 0.6777150676295162 0.43497489273192663
H 5.867118832014156 0.244410804327022 1.7714074329248741