13

C 2.661127965661519 1.3055236760990305 0.35949714741282873
N 2.30371007178534 -0.07050836603054095 0.08711410673082756
C 2.867806508563104 -1.0206245566394465 1.02730288651456
C 2.4252117746751343 -2.378517068420211 0.736114307373626
C 2.0595241802449635 -3.4984490450238557 0.49214193394078576
C 4.3463939618259095 -0.980071534007634 1.0905302199750966
N 5.493540033125256 -0.8744414090111149 1.1040543478271017
H 2.2019611468155267 1.9405919519318289 -0.3986843878638273
H 3.7455140698281344 1.4996472921672523 0.3565396006109175
H 2.267066485211082 1.6007032224964104 1.3317409653018928
H 2.5469839501648965 -0.33894358881990744 -0.8506857517162444
H 2.5077132666821664 -0.7426656939951767 2.030787810313127
H 1.737286727459913 -4.485345319813741 0.2735146373432269