15

C 1.4914380227764377 -0.3832078683965148 0.10904248505373292
N 2.930483730331493 -0.4300628360520896 0.28406674061589143
C 3.635249358021194 0.3986840739153805 -0.6468291194270013
C 5.109367736779192 0.4839525262618139 -0.3412080578687255
C 5.682446455822785 0.021211383776958668 0.7683992437339678
C 5.908207058827551 1.1205587257973415 -1.3485623275621605
N 6.513007659458517 1.6449343875750437 -2.177119850677419
H 1.012521721194865 -1.071048914091306 0.8105914348705149
H 1.1532928526491304 -0.6322805960802557 -0.9015560789946955
H 1.1281844632656401 0.6215318654111357 0.3454286332878147
H 3.2531518949821425 -1.384494932880456 0.20754413481122747
H 3.2188576150154606 1.410975504659634 -0.6004784041053307
H 3.5278173972507285 0.0787113033536616 -1.702511142052196
H 5.074098231764366 -0.4442551043106655 1.531558255604992
H 6.754587542426613 0.11465802525576091 0.9348271077812983