17

C 1.0286052916090007 0.14734034285556333 0.2530675677395241
N 2.46535892876135 -0.05513772411397591 0.16105933203170772
C 3.1577296101169026 0.2883318590722793 1.3789985273524559
C 4.623714401520012 -0.15217513457477955 1.3119223663478379
C 5.420682302290731 0.5457506475973689 0.2084740977587144
C 5.256785588675547 0.07854943771226557 2.6081015154613905
N 5.745830669133978 0.2774516664077305 3.6269647891103074
H 0.562009135031927 -0.07340128262414891 -0.7063837285693393
H 0.7347864071917308 1.1663157773721085 0.5556915835192637
H 0.6158202503462104 -0.5437928878578521 0.99223796608556
H 2.825701998837029 0.49304236324241696 -0.6087845719135078
H 2.6789375171450915 -0.24064080726393922 2.2079716817169253
H 3.118757925975218 1.363145375904688 1.6176702221277917
H 4.640683490795638 -1.2363425308056737 1.1346246673398035
H 5.377988776224455 1.6300489399495774 0.3162525791353162
H 5.017448205703166 0.2675657125976446 -0.7699820254409245
H 6.469683918829439 0.2422117852473929 0.22361425467194934