21

C 1.1028643242056064 0.17514387612937352 -0.1353451093373178
N 2.546558047743257 0.062079879771736506 -0.05372586197981064
C 2.9822838561543428 -1.0312769475871746 0.7959148317156858
C 4.489727146934532 -1.083556537557731 0.8727608415573094
C 5.0257157109434125 -2.223296805762252 1.7359761279237664
C 6.533306921145383 -2.36572279760167 1.5739817497553124
N 4.603965512616882 -2.0267090706482564 3.1270899767746867
H 0.8262601737533548 1.048025215840434 -0.7270572061792573
H 0.5993633628200211 0.25059835805553704 0.8499509381550227
H 0.6914407411101064 -0.7101429630356589 -0.6342111815792051
H 2.9327971855279507 0.9328835773075538 0.2964878809600531
H 2.609588912531817 -1.9641671236889795 0.3552283451300281
H 2.5618601343764196 -0.9731391373618176 1.810727991624698
H 4.873970609260625 -0.13992141152312496 1.2728331455481112
H 4.898111233045497 -1.1792524229396106 -0.14411810493150273
H 4.55185797152249 -3.1570438489322346 1.4036436459063764
H 7.040529437964511 -1.4513245956643757 1.8704075963452536
H 6.810436160294661 -2.5837073197600158 0.5422904613461745
H 6.914412782208831 -3.1844489520645056 2.1944187396433565
H 5.0468942754091 -1.1935850271700443 3.502184858657306
H 4.90610262093281 -2.797697552492873 3.6971908855398588