17

C 0.812424185196648 -0.06399686567375971 -0.4751596059094624
N 2.2531022646577736 -0.20317243095595325 -0.3812509641010303
C 2.9720831456080874 0.9055786722078667 -0.9789342710605194
C 4.467713575613145 0.790851909917859 -0.7216626833633507
C 4.812524857589446 0.8526885057600847 0.7661303627332254
C 4.517177754741965 2.1577420522878934 1.3451695030843827
N 4.279212346379387 3.190284040938773 1.787574885760085
H 0.32979293475535243 -0.9505215619385616 -0.053324987468718034
H 0.43866070056753664 0.07442382373220602 -1.5042474200601432
H 0.49355441317066223 0.7984003461877631 0.11239836962613134
H 2.5370659575823176 -1.0662456573167247 -0.822728733238094
H 2.59332170259371 1.8291279376897052 -0.5382272995769188
H 2.8030850792597306 0.9898590979289563 -2.0694320024126864
H 4.9919648261081 1.5857623421548273 -1.2640677864839163
H 4.8332549657168276 -0.15920135973416552 -1.116417464368181
H 5.8701840695370295 0.640757021762748 0.9296726562705593
H 4.235303668977455 0.10560547075265221 1.3048759689567024