21

C 1.715647141514351 0.3985851691124702 -0.4609852839569065
N 3.060826963959191 0.305463139704278 0.06152030381863128
C 3.590242274841665 -1.0379342395592757 0.021651341916461182
C 5.043364184176141 -1.1121329013723202 0.4520224060077402
C 5.2224168882145925 -0.6847355344706088 1.9022504994006135
N 5.498111059963232 -2.484635591365896 0.268230946790306
C 6.933546950714311 -2.667924120618065 0.35130644954394197
H 1.3375751919637748 1.4173990310193765 -0.3367464441396556
H 0.99567867946032 -0.286798832084324 0.019470912060372377
H 1.7203610785075616 0.17689146582968698 -1.5261589383338852
H 3.065522338157334 0.6418989598819392 1.0219385966285885
H 3.5140744450408063 -1.3850478627248461 -1.02474178993316
H 3.006812431383419 -1.7617966137741978 0.6211408244864884
H 5.613565615379411 -0.4161102633304387 -0.18349944589429
H 4.617665642216476 -1.3097715756697592 2.561491583076686
H 4.93685713950356 0.3626111496606767 2.0348408322386966
H 6.268090298633882 -0.7676820592351673 2.217613074629683
H 5.1751768595128596 -2.812750324801335 -0.6313810104059306
H 7.2756487200172835 -2.552689343433494 1.3811219739960499
H 7.503412718989773 -1.9667670268936666 -0.2733705421577152
H 7.1834906927892455 -3.6923255149508054 0.05206858434382014