17

C 1.0575467456679875 -0.06877589027087232 -0.12109671592692209
N 2.472716491065701 0.15306796509399082 0.027339143777813355
C 2.9077674249829037 1.2459119546547717 0.49054725460981996
C 2.1049867188995752 2.4237587631476276 0.9415877916997344
N 4.278353815918116 1.3597811201110552 0.6021402205404034
C 5.014131305998001 2.4301858899565274 1.071410513836361
C 6.340478794720906 2.473293936051024 1.1502999748676934
H 0.8916442684587463 -1.0632238716614426 -0.5429091024508113
H 0.5892594188432343 0.6495806084056354 -0.8114439752751468
H 0.5139705434269758 -0.0241856597919508 0.8265942002368972
H 1.0391353522730042 2.2350006762879944 0.8128497734846881
H 2.36119911312431 3.3211717384952566 0.3630345145580605
H 2.2905914729307457 2.646637081299775 2.0010783061646116
H 4.777875204149845 0.5373884956426251 0.28796276700207024
H 4.417377094051876 3.270583667180145 1.3916047593321748
H 6.968850092088305 1.6523370368464583 0.8345319781673056
H 6.825129942771546 3.359257844824092 1.531846034261751