19

C 3.6618562200470257 0.6284802449344216 -0.9533858562518265
N 3.1870553257263183 -0.7427234410918289 -0.858435614052312
C 3.5689026021137766 -1.4262343927295695 0.3772076747423067
C 2.7323811673400336 -2.694093054855967 0.5132491950039676
N 2.846057522497315 -3.51439982563609 -0.6888061240680208
C 5.042668675101784 -1.7247179519763287 0.4394668982844575
C 5.906019869385952 -1.112661985109151 1.2339134456867553
H 3.402229615757194 1.0313952417815924 -1.9243687738433068
H 4.751675891522961 0.7443140666350385 -0.8118235578863022
H 3.157762547832329 1.2344713041956457 -0.18817357496570586
H 3.5388484683383306 -1.2787769237499493 -1.632310104698495
H 3.3130826528497304 -0.7580692288604952 1.2089671563100606
H 1.6987510092768157 -2.3928147432810265 0.7236078827734419
H 3.1007214431494496 -3.260964389110935 1.3703176565437984
H 2.206059439920644 -3.184459206715485 -1.3982247399342236
H 2.600382935261759 -4.473697044969069 -0.4892648585162632
H 5.380010753385863 -2.4956757142788173 -0.25798633042129704
H 5.594947355329399 -0.3459297188399994 1.9305184665937223
H 6.966656731592804 -1.3559453745488292 1.2167241760549201