17

C 2.663919397362641 0.20238243078765283 -0.9967123631065755
N 2.3652980325384765 -0.7294354028990575 0.06699797222842609
C 2.9052667733918818 -0.3621859739912604 1.3608479199760373
C 2.361857418412397 -1.3026155387468534 2.4388317525348415
N 2.8052245443005583 -0.8761949328649549 3.755017686444447
C 4.374339709236615 -0.32488306070650386 1.3949789859712738
C 5.577453444459214 -0.3416370209683519 1.3931248842485682
H 2.2359051945435144 -0.17234968624221794 -1.9331709827437442
H 3.7403821513147983 0.3753281161329051 -1.1486746266028052
H 2.196127331167121 1.1595700254055907 -0.7811957243061851
H 2.706277770041257 -1.653276153511529 -0.17703113938106227
H 2.5407749380369142 0.6464738760758044 1.601313781194164
H 2.6523895564783344 -2.3284921509581245 2.164603811467881
H 1.2705864952410568 -1.247856383799717 2.389709968357477
H 3.8024162803724377 -0.9702234021608251 3.8318901432489567
H 2.377110402016952 -1.4524338014210798 4.469146390577826
H 6.639205430011144 -0.3422228274941449 1.3964636617283375