17

C 1.2494997809731476 -0.008503535315192197 0.21508913288192977
N 2.6940907846269613 -0.07816144848264008 0.09602972775126714
C 3.139230263049505 -1.2125707787901931 -0.6820739357226483
C 4.642928214293025 -1.1166245092817964 -0.9729907492281652
N 5.5041690615234 -1.016304903126861 0.19590218511939758
C 5.052459815857826 -2.2664940488053644 -1.7970451633659745
C 5.340097520585055 -3.2175112597774915 -2.450021529995605
H 0.9763457122215821 0.8245023553290716 0.8699623525524426
H 0.7852228051135516 -0.9324629162552762 0.6239596395790095
H 0.8053314129558592 0.17432670438157788 -0.7625550796311211
H 3.094137135172399 -0.13240371753544128 1.0137456288473294
H 2.602776150662266 -1.2154385390739169 -1.6373402291679826
H 2.9232184707346547 -2.1900264329344736 -0.20417569937577626
H 4.792493499528769 -0.2075723438772278 -1.565028066810251
H 5.376231713241385 -1.8086131901838243 0.8096140363038709
H 5.3033527229979125 -0.16374983601855356 0.7050620975021802
H 5.617677360115298 -4.06478423619082 -3.041477608599553