21

C 1.2357148905678461 0.05907664740094319 0.36213058441519097
N 2.6552299349888946 -0.07280462093786555 0.12657054749096885
C 2.9641592408978226 -0.9781779165885046 -0.9620003344406007
C 4.472489624494499 -1.0358710120833383 -1.183179921595238
N 4.874821732096399 -2.0616318279219663 -2.119489687479321
C 4.426686011743717 -1.7931585921398345 -3.457865969165964
C 6.31320217019734 -2.2464283701829264 -2.0817605235928354
H 1.062985657970558 0.7011826459221733 1.2315530266100736
H 0.7055514146498028 -0.8898294183212588 0.5165873490453383
H 0.7714859591531199 0.5492279535115371 -0.500569070624756
H 3.1061586978144176 -0.3976586610472337 0.9730481856375093
H 2.4650607566352924 -0.5887932806072106 -1.8545280872275247
H 2.5937061975476983 -2.0043504677902235 -0.8089870589946921
H 4.940560578644458 -1.261172683125564 -0.2163171245825176
H 4.832139591125533 -0.03305393345430656 -1.4747627013310634
H 3.3340219226951087 -1.7617971816058717 -3.5070889937100898
H 4.759693535056956 -2.6068754942347327 -4.121261898154512
H 4.817515499855699 -0.8409089532721898 -3.8664264881766655
H 6.6312161753797625 -2.5067984114633797 -1.071826644303734
H 6.869054929889365 -1.3472658023045552 -2.394720638512082
H 6.5967017583389955 -3.0618837402701153 -2.747905130470106