14

C 0.9847562749716204 -0.3274170000447496 -0.1833955009665032
N 2.3688965816258576 0.033801435388070664 -0.00748298148584815
C 3.1018064459899124 0.4281465804410821 -1.1905818807270512
C 3.0948841402013665 -0.3120679079796554 1.094580587436105
N 4.354488189461655 -0.29599588282656875 1.2745981950915297
C 2.29974669659671 -0.6943541473123855 2.2540926863164485
N 1.6793306581621226 -1.0094398369645012 3.1667303303813297
H 0.4450427503012517 0.502707389233784 -0.6471744201299433
H 0.5231845884255067 -0.5449189816042292 0.7739419916699984
H 0.8732706549062049 -1.2085929230535306 -0.8357582037147289
H 2.3981069858343957 0.8378760669474422 -1.911587250587743
H 3.630534409908842 -0.4090756100587097 -1.6552706147061682
H 3.8313219470256303 1.2105305103934776 -0.9476535147993592
H 4.85688585796464 -0.04825925953833076 0.42554729966311045