14

C 1.058056473801581 -0.7472276792861096 -0.12019664710089022
N 2.2647676490014867 -0.034502370498608576 0.22208233793522347
C 2.804334944134043 -0.20692216858126347 1.5542937867285922
C 2.7597383638898263 -1.6006552383230321 1.9976033128686044
N 2.7395505381281593 -2.6811681936453553 2.3640290370173913
N 2.3202356394793306 1.1920137942851545 -0.3155756281879726
C 3.0129435512313743 2.13769783811925 0.1913803108131745
H 1.2048534582050652 -1.81478199582361 0.019446087865820267
H 0.8447777954533485 -0.544249782666626 -1.1648401628834788
H 0.2022832264600189 -0.4289457943838511 0.480977575177943
H 2.2734831293640236 0.40514242527782834 2.3039123840835773
H 3.853241691649943 0.10382861607341481 1.5674084226575025
H 3.031266237735789 3.0674198200165486 -0.35233561248109924
H 3.598170982181271 2.073132684629677 1.1073218342130848