17

C 1.394371812299041 -0.09131640440068617 -0.7032809065041009
N 2.749319868945465 -0.23209312795761053 -1.1571417795832852
C 3.4756985186496645 -1.0971822768466455 -0.5902895430409777
N 4.748361117885619 -1.4129800840345703 -0.996859544925442
C 5.892533055255266 -1.4157691891909812 -0.11815790753959664
C 5.802993467606981 -0.4608072874549983 -1.2653649698621423
C 5.613049594565289 1.0071771411500896 -1.0278211999586362
H 0.7047058305673767 -0.2918587055341367 -1.5225181514843746
H 1.216075388514082 0.9388811764009427 -0.38711668220188533
H 1.1395153519150982 -0.7604033530292564 0.14165468277160345
H 3.1091084218538545 -1.7225531787551156 0.24028437640438308
H 6.538529261631588 -2.28866523599871 -0.17074528607722894
H 5.767907100458806 -0.9891258572539452 0.8784832783135123
H 6.37174596631206 -0.7049903387943177 -2.151980731814872
H 5.101295120453853 1.1881406040759912 -0.07770949742276517
H 5.018664412883651 1.4555943842252292 -1.815127515381424
H 6.585566715202647 1.5004864609465285 -0.9937301534613937