17

C 1.0118272205858074 -0.05052449066583207 0.10357920601817175
N 2.438971707849208 0.0873227258879832 0.158289743498263
C 3.1397106868463935 -0.8935970693141376 -0.2245065469527333
N 4.5144962984910695 -0.8963207530640496 -0.23589528218232686
C 5.248024732287287 0.25674280202769556 0.2146302438844249
C 5.195694165581835 -2.0105479287287973 -0.6722420046595335
C 6.515322308667322 -2.1615553349173027 -0.7354494807307458
H 0.5869927503645206 0.7380975127687303 -0.52646099182533
H 0.5939479979648448 0.08871556353881815 1.103764692536146
H 0.6794782564503934 -1.0234500097712749 -0.27382227592515584
H 2.702466221862157 -1.8291897276636295 -0.6011766663928296
H 4.5352407596519315 1.0113574790080473 0.5198529657882641
H 5.8772430508497475 0.6474596078702 -0.5890799728570448
H 5.8860928812293505 -0.009296054348468794 1.0701462117015172
H 4.539856412029644 -2.8154358871087704 -0.9915349043381744
H 7.214442187536862 -1.3854382081951577 -0.43443953711739475
H 6.929511694432807 -3.0900890138581523 -1.1089639101230377