17

C 0.5651771359903288 -1.5502163342164903 0.29129937116386534
N 1.961514806730221 -1.2812143619262646 0.06793189129318543
C 2.6876385037044654 -2.236308484093979 -0.32263908594801627
N 4.024844237192641 -2.0639251349769054 -0.5577517966115464
C 4.944982460949599 -3.010456726048039 -0.9759241540062328
C 4.4327981381530925 -4.393124898256488 -1.2243790830068495
C 6.225751989952573 -2.685388558005414 -1.1646269392033117
H 0.3005510788392368 -1.3235658892915554 1.323565531444127
H 0.2802351776354368 -2.592625661428462 0.08595987426197861
H -0.048400443557230756 -0.9021834638069461 -0.34628038675069317
H 2.309239177657057 -3.251713757021312 -0.4993411496073448
H 4.358161129693774 -1.1281999618667902 -0.38372072107177324
H 3.6584831661040518 -4.409532703128458 -1.9946223280193252
H 4.001909854723517 -4.824762432354773 -0.313339175424163
H 5.246267740001412 -5.027374738532832 -1.5555376368508522
H 6.594604930293234 -1.6759595291788756 -0.9814882046385149
H 6.93696787830078 -3.4187857323212163 -1.4970916857166847