17

C 1.2855568696961859 0.15004465892271351 0.3520361804070275
N 2.7055273700769025 0.07874190686062632 0.11706695356433865
C 3.1482296446494993 -0.9397384882939208 -0.7121522067011771
N 4.270010534068327 -1.5121377293002607 -0.8125963317594233
C 3.54280595153424 0.9162749785342743 0.8586575606077225
C 4.9155749282797485 1.205923097518412 0.332557236830991
C 3.0970116049724012 1.543881018386814 1.9575473434305586
H 0.7580479193414945 -0.36823027477783815 -0.44840635618483904
H 0.9548467157598023 1.1907484738765153 0.37243153557263176
H 1.0032576484469145 -0.31898417313389393 1.2956609065334315
H 2.3450492675418158 -1.2814476401474935 -1.3801708644626838
H 4.9378653279331814 -1.1773562791682786 -0.12235448446635323
H 4.938218075775227 1.186419731526376 -0.7658997370634484
H 5.664492383628229 0.49935083041228506 0.6909253317106463
H 5.222512381454613 2.192857035051126 0.6603135411204517
H 2.1177251864763127 1.3754490943099282 2.3865442858129136
H 3.7343190678454303 2.2615865333146057 2.4628827929055785