19

C 0.9271842376764928 0.6509656818792131 -0.8764689614669191
N 2.3408967160926584 0.7169906746830982 -0.7152579111447143
C 3.2178386479085246 0.1284532373091409 -1.57858107200647
N 2.917652573392677 -0.540670470236218 -2.613241054570823
C 4.680726431640117 0.3197183488772731 -1.230124189497148
C 5.336858595785674 -1.0339512907488366 -0.9599219206123913
C 5.405149241699854 1.0672556340831754 -2.340079796042749
H 0.440207513134678 1.1962231402630639 -0.06953907351833669
H 0.5596821097979253 -0.3828766689804014 -0.8553135017407484
H 0.6038920912361266 1.0988302891927049 -1.8242563516144834
H 2.7186311036914073 1.221362685402369 0.06586860149602476
H 1.9040022878894443 -0.6016246883020483 -2.7520444104194324
H 4.740591242764652 0.9182940571308026 -0.30614862610613264
H 5.26609232681319 -1.655277396410076 -1.8516009550297787
H 4.848937948671281 -1.5650293537859628 -0.1385504947781202
H 6.398481497254048 -0.9045306783922538 -0.7123017378525083
H 5.3275260721811755 0.5013487470941314 -3.2728169200820902
H 6.456999706000956 1.211919685191752 -2.0912965845897755
H 4.958535288384793 2.0490157983823503 -2.5063634980043235