14

C 0.9906612811287312 0.16725239867497496 -0.07690444097646751
N 2.3916449581852657 -0.06184078564997149 0.16625613930414598
C 2.705243394027174 -0.916785815282954 1.0506176551687905
N 3.9963203092829573 -1.1555378509145147 1.4055688252255945
C 5.049290922390822 -0.5351626184222543 0.6315646569061112
C 6.351156866649715 -0.7768105846480489 1.2476934736414516
N 7.37137344793844 -0.9810731104443958 1.716169226536277
H 0.7717114022257523 0.0028011545944444847 -1.134722671689725
H 0.7364554381705601 1.2091129666612603 0.14284134166303636
H 0.33327609737559566 -0.47410060523901365 0.5227424223289922
H 1.976822979279848 -1.5084537059734027 1.6162627043263753
H 4.211099063787197 -2.031090223093075 1.8579897881216794
H 4.865190060158826 0.5369024290127367 0.5801297685099571
H 5.077329249126396 -0.8963360153397615 -0.40082629333357517