14

C 2.8542499825890864 1.220879585183724 0.34021597001185555
N 2.3061665432737968 -0.047677468108649805 -0.08956713260393612
C 3.0259807334605777 -1.0619661880751108 -0.6425641658402749
N 2.582108036185469 -2.1162631772601923 -1.2006753226104474
C 1.149541781717826 -2.2639622751455137 -1.2963290516815142
C 4.4694605465540205 -0.9390738204892107 -0.5374166611070642
N 5.606511750818669 -0.8263373127921338 -0.4621445059188159
H 2.226281819163917 1.6352567545631473 1.1267893611124302
H 2.9363428288752376 1.9461415746417925 -0.4750424352709447
H 3.8523739961016554 1.0651520082974115 0.7523350802279788
H 1.3153522569281164 -0.07102006584590644 -0.2558207139021379
H 0.9131346624857102 -3.193848900447599 -1.8151470270921453
H 0.6894936356351207 -1.4412667718136092 -1.8718160023879917
H 0.6707406406418744 -2.291058257541795 -0.31645503230363536