14

C 1.2104441013896534 -0.42205395085203623 0.2753962591582813
N 2.5766670146563238 0.053720545619087644 0.26464234887533683
C 3.183834771614032 0.5382619068321929 -0.847063402787911
N 2.3570066062598523 1.0251063211790346 -1.8181076376761782
C 4.545987785902935 0.5150557085698229 -0.9961732126406504
C 5.143980615279504 1.1600746785551674 -2.087787978902535
N 5.589543269575733 1.703480274363633 -3.0121204077450257
H 1.0282980517129103 -0.9195593008821157 1.2239327438404703
H 1.0067460024786714 -1.1344260138756888 -0.5324649889884506
H 0.4990731187534338 0.4008264006706196 0.19984711526451465
H 3.202087708355609 -0.38755169166382486 0.918647066070039
H 1.5060134191023236 1.4660162952786904 -1.511193710889007
H 2.8224145092040587 1.4990516514357188 -2.5754198893233946
H 5.1751725031736555 -0.002045276171973799 -0.2854565521213905