12

C 2.0473287054278795 0.7463447656873416 -0.08192708479354847
N 2.243274545355312 -0.13623927512366324 0.7967126441203584
N 3.418362800881575 -0.8971968109575085 0.5390087638911053
C 3.259877941384236 -2.2487652240089577 1.0560918456612205
C 4.088231378929256 -1.2835317257724335 1.7961284265969992
C 3.6273454910902467 -0.7636484338596031 3.0580672527676778
N 3.3442938664113804 -0.3487609289490184 4.098391162157806
H 1.1667597781839418 1.37251441158842 0.028934823902628835
H 2.720418997621059 0.888491193704335 -0.9254732461955887
H 3.7512315817777266 -3.018045226748277 0.46506711617679874
H 2.295816409454172 -2.4895656199610725 1.4789499824713737
H 5.1696023895211125 -1.312946739334757 1.7076164141067238