13

C 2.4902917971066527 -1.454710115180113 0.6231410786832228
N 2.482860183590453 -0.34607884811340506 0.018814236558061796
N 3.140699130560901 -0.2251031405744441 -1.1675190174302392
C 3.1341548136485438 0.9809721066916656 -1.8310126821545833
C 3.8643254031827396 0.829651087162249 -2.974112584848281
C 4.325409663446933 -0.512104043381183 -3.005843620573269
C 3.870365762778456 -1.1437468327697915 -1.8858187593418372
H 1.9554241588708405 -1.4935850513372726 1.5573472967593838
H 2.9947647643302693 -2.3511235329201354 0.2759278387703076
H 2.6077029991684184 1.811765265384794 -1.4044614319274202
H 4.041991233598211 1.5962001363314944 -3.710252433120399
H 4.93573839864893 -0.9630587556655744 -3.771176163397805
H 4.013591881152348 -2.1582061940699075 -1.5548675451246061