17

C 2.9230085977593427 -1.1823007287384408 0.5709490930867319
N 2.344119913816376 -0.04972734302746038 0.6683028856310254
N 3.061466858980356 1.0663319438541055 0.6864849407093607
C 2.4100804901097814 2.314039559390364 1.024324604584026
C 3.5136904447113064 3.3232000676110722 0.7964967851122092
C 4.763277135821787 2.569734222340936 1.261513082315613
C 4.494320093174863 1.1144360775695823 0.8614886939584407
H 2.2751999433196732 -2.053262419566999 0.5384469292431031
H 3.992487389454928 -1.3268762161521648 0.5011442913039945
H 2.0705569679994777 2.3193306072627955 2.0753334527373704
H 1.526134060691353 2.4676212706365654 0.3955506160757456
H 3.3526089893112876 4.253324106192868 1.3492963364659576
H 3.58930160808952 3.565476393955149 -0.2598507754462876
H 4.852992949136236 2.6419701152299133 2.3492721564355956
H 5.6835949853587495 2.965312985176681 0.8232368687945344
H 4.817269155020771 0.4043918096367854 1.6342366994817075
H 5.004614175039017 0.8337842677136007 -0.07301383963100629