15

C 3.0260760324241565 0.9611899527008317 0.07318498735129216
N 2.48237872039602 -0.1919672959621217 0.2007290166620687
N 3.182649393926466 -1.220539177144382 0.6364781652327938
C 2.56627744594928 -2.5232136187661656 0.779465961878219
C 3.704908226521686 -3.342529296746499 1.2930299422288467
C 4.806207564646427 -2.608831542236271 1.4365382807812004
C 4.567449513641778 -1.1892188413253129 1.0345942642279986
H 2.3932909088792327 1.7574291090788845 -0.2925100503121295
H 4.062904096036789 1.182658109936017 0.31741190402318553
H 2.1936703169778293 -2.89686915110562 -0.18499059615118793
H 1.7210479580714106 -2.4913064818918498 1.4711680459479095
H 3.607158340948245 -4.39049405184315 1.5254869095826669
H 5.7595794558085425 -2.9633963956350895 1.7927651772236317
H 5.221865324408585 -0.8755659460401561 0.1946198507602949
H 4.752509451688795 -0.47926153076848227 1.8554292750341017