15

C 4.451873313936547 1.9902629995734997 0.22102529839555626
N 3.966247668132431 1.1707636429983956 1.066360361960774
N 4.787499489434955 0.07676444317981654 1.291659648520574
C 4.292189007529087 -0.7262425776696309 2.1434875407113747
C 4.975509635422218 -1.9595233644061367 2.531029132701454
C 5.800502851045481 -2.707988179800991 1.5108999274270725
C 6.484625488989691 -1.9798727564080918 2.6120986688404497
H 3.8708484719883516 2.872761094626715 -0.018097753647799995
H 5.4096683846366895 1.818355190482611 -0.2610557510684849
H 3.318185521459204 -0.5050114567681272 2.5886178759873038
H 4.4451793704052225 -2.5605415358694614 3.2696567087808663
H 5.834019402308865 -2.276865165923353 0.5233256397205349
H 5.77163913086188 -3.7944303816094895 1.5555500836154854
H 6.977352773266316 -1.0482500316374566 2.3581313547044833
H 6.933813120396489 -2.5478547608729567 3.4144040369172477