17

C 2.44962963228825 -0.27873609315848696 -1.0726968056734032
N 3.2413018480606053 -0.4657669157534332 0.1193615714242293
N 3.687101258196589 0.6820910681349863 0.6782199496663619
C 4.739764867363345 0.6570139588046814 1.396153229705665
C 5.28261076238017 1.8622090772868451 2.048433616753093
C 5.875834843204176 2.9693257637158568 1.2055846857618528
C 4.580285175353154 3.169542345290517 1.925380387047831
H 2.047818273033726 -1.248530250639817 -1.3750847515699973
H 3.0181260024508743 0.1488111584086968 -1.9059736833522212
H 1.6179704802836294 0.38810697447198805 -0.8410285551284359
H 3.9561106721900288 -1.1857752892138296 0.0197820258730138
H 5.299192112646825 -0.28626628737108806 1.5396635144476605
H 5.7867315578119705 1.657550748014217 2.9838099945533343
H 5.835869466497973 2.8268323700903215 0.13701345911375798
H 6.754451759454534 3.464772523772378 1.5799781427624824
H 3.6746475489080117 3.1710623806584306 1.3377000977784776
H 4.566686921503523 3.817964919730764 2.792037516760893