17

C 1.9437260350190617 -0.7595282968757435 0.6757206242047286
N 3.3261813312322475 -0.45360394701585055 0.46047904895282205
N 3.7248541563615976 -0.10107240847115735 -0.7498536476900871
C 4.9663577630569335 0.17055497987484486 -0.9634991052491289
C 6.003448470171866 0.1193180745441274 0.12075339698095917
C 5.29367148439903 0.5463482879897477 -2.3301473557293177
C 6.492536956630458 0.8787875247746082 -2.8210143056794044
H 1.8025914757921304 -1.0227067356762274 1.7216016976572417
H 1.6192983340740266 -1.599836054364161 0.05683454842268439
H 1.310622576036578 0.10089123445930048 0.4521917928925868
H 3.984482191008821 -0.5087972688123726 1.2319025262064114
H 5.756983702459523 0.8022247097440798 0.9307592252115688
H 6.993084114909419 0.37937861539830153 -0.24805539657004733
H 6.065063181563249 -0.8900754481994793 0.5427009757983939
H 4.433307740847852 0.5405721502857892 -2.9931010424522535
H 7.383142534519441 0.908632344792474 -2.214101201308074
H 6.607111012689387 1.1424803554989447 -3.8606312259195747