19

C 2.251955583434357 0.9335659828229393 1.5667284831541022
N 3.1672607082014124 0.5033119607821395 0.554775683947823
N 3.721046424519359 -0.7008520570696395 0.6475307780798394
C 4.535201136343521 -1.1026535631760848 -0.23605544210775517
C 5.166789892751925 -2.4568306088773983 -0.16972172565383412
C 4.779239349736938 -3.3098488148024257 -1.3737179592195325
C 6.686828893742573 -2.3389346159039532 -0.05298280937115283
H 1.9239696983154513 1.9472728889325492 1.3134409256329567
H 2.7221965545214735 0.9720362104316216 2.5533334698970744
H 1.370865928795485 0.29087101665651693 1.6240655854033657
H 3.4071057062081525 1.103957122002467 -0.2213149467432144
H 4.809055677935907 -0.4630676907476333 -1.088864203556901
H 4.782848724125273 -2.9329352601166025 0.7351742160680641
H 5.117454835073819 -2.8366351609991605 -2.3071503895165306
H 3.6922899802181837 -3.431620628288552 -1.4372985301643297
H 5.245077513598302 -4.29374789239153 -1.3252240012603513
H 7.106472183533879 -1.8264553218132857 -0.9270896815920935
H 7.148489036158139 -3.3331932112883336 0.0037725580092840896
H 6.973941715395692 -1.7779926980396228 0.8371844288263302