17

C 3.0171505337782407 -0.9044702917444171 -0.7379317667907445
N 4.188514005530231 -0.18603891129835937 -0.33414195297102917
N 4.060052489063688 1.0063589598382914 0.2175065781665281
C 5.1002788133553025 1.659665556734829 0.5763113780283478
C 4.999962209498725 2.9648949791699595 1.1963878504028933
C 3.6398340534332605 3.544804429175242 1.392656293457966
C 6.117385409035677 3.6189847047185966 1.5564108282513531
H 3.330901884538389 -1.8544179325311219 -1.1750414401574578
H 2.444684084048182 -0.35367714213711227 -1.488322915727894
H 2.35519291668492 -1.1123840311195112 0.11128070048949631
H 5.10164066446547 -0.5798850640132044 -0.47910368290890065
H 6.106900959309228 1.241164740429746 0.43723330280428635
H 3.0256213968776917 2.880682501123346 2.024396783898805
H 3.1064243243967318 3.6273661045431687 0.4423523279112829
H 3.6915072369741386 4.5261349378549935 1.8596320239236046
H 7.100362903940513 3.1828336285448144 1.4037816622638706
H 6.070777069621766 4.59667760039473 2.0223973939586677