17

C 3.793507653902411 -1.3672924489204725 0.9641974808921139
N 4.441528475441889 -0.6575753860024698 -0.11597487438567551
N 4.309707738667889 0.6908415995307877 -0.0491393779484625
C 4.391656087004694 1.3615266944242588 -1.1189619916693967
C 4.333869470794432 2.862963619878191 -1.1010985635746726
C 3.15929732942906 3.383343529406533 -1.8712623519417566
C 3.2387166871039885 4.15540338852238 -2.9478246789729687
H 4.067807889159808 -2.4216734113208713 0.9010919825079524
H 2.7032107078278624 -1.2811269901064335 0.9559368163424755
H 4.165015312403067 -0.974353574473821 1.9068566019975381
H 4.257653739009099 -1.0533180893223748 -1.0337953812639071
H 4.507344574749488 0.8795502123463782 -2.1069440982983205
H 5.250357271072313 3.2764642132900383 -1.5197742853360543
H 4.2682513711596926 3.1710849444251377 -0.05482960797471479
H 2.178160260126899 3.094031923639928 -1.500763803241724
H 4.197549210925442 4.467763907710587 -3.341898025155837
H 2.3539996824161897 4.497323261662407 -3.461351193386388