15

C 1.7770033598949635 0.8602261816100324 0.477803022773854
N 3.0587209091935397 0.200509811373669 0.5198375397704241
N 3.259702987214661 -0.6864650931735664 -0.4761048336368607
C 4.441214799591876 -0.9613611157644604 -0.8332748624992261
C 4.691696470589002 -2.0227751345847036 -1.871504022387001
C 5.54019666697976 -1.5414927980031907 -2.9534909743075946
C 6.239262073855885 -1.1456647502047717 -3.83788607688121
H 1.648347333721183 1.4430830305249662 1.3820800030060842
H 0.9853233901064056 0.09975397047392354 0.43671460206229196
H 1.6523291360261536 1.526362358147238 -0.3891810188463155
H 3.8420368962168245 0.8220659203862033 0.6937101050794501
H 5.316117341181204 -0.4653395744186548 -0.40246168566030455
H 3.7259114233521613 -2.3501297827137697 -2.252693827707232
H 5.1737550758185735 -2.8869383675544866 -1.4043875386561844
H 6.8581409016087385 -0.7890251241535826 -4.627376720165977