12

C 1.4506874463795527 -0.21802446112453636 -0.49974623557676434
N 2.694416818918139 -0.0828801933859159 -0.2955663004115997
N 2.9655074090946862 0.8878724765764423 0.6736742887386343
C 4.202175438049857 1.0370505038423443 0.8618568303180119
C 4.6757215808945585 2.0132702622403356 1.895194869790665
C 5.697857958126444 2.912809467463329 1.382368731260163
N 6.508750032021007 3.6097527350599754 0.9670600896979153
H 1.1354731386310237 -0.9473384829209716 -1.2417178905408564
H 0.7056490718230087 0.3784087757776382 0.03229668737191529
H 4.940515011303292 0.4572045673392784 0.3025263865475845
H 5.106661850904716 1.4652520329416603 2.742066110084871
H 3.8323310863304823 2.582032932514302 2.2659588186053568