12

C 0.9209792125484684 -1.7676937512856017 -1.3726176742998364
N 2.1813412334799924 -1.8534483846934113 -1.4562384075162205
N 2.9196978705231773 -1.0550405040860937 -0.6706108805809138
C 4.279820353379253 -1.1050516910144137 -0.7005493768971359
C 5.0296436391840595 -1.8910144758184664 -1.485831445991628
C 6.442216769856237 -1.8358230067577723 -1.4297919194510549
N 7.5911479461462195 -1.8101411935705767 -1.3926106302591552
H 0.32247346664559445 -2.4066991925474244 -2.006767102217459
H 0.4039524233210295 -1.075363045285548 -0.6898251256226604
H 2.468010940419806 -0.4134786302013447 -0.03690322261459124
H 4.752369633050224 -0.408849774381884 -0.01724840144195197
H 4.569170082764621 -2.5953372419346237 -2.1776424774350054