14

C 1.2159472063741694 -0.15908460966446794 0.4994416989354135
N 2.648387810871894 -0.24722859917432277 0.4053432606895219
N 3.13489689001985 -0.7572397240101686 -0.7123932115099824
C 4.395210461128841 -0.6185783556897648 -0.964620493756799
C 5.365243736910636 0.11510078081865907 -0.09643052777042029
C 4.870845458177255 -1.2249559924358941 -2.16692792793994
N 5.319595975842513 -1.6994545488098731 -3.119422675399613
H 0.9387622906541981 -0.0019052146699233968 1.550391987215225
H 0.7791590432475622 -1.09038826217568 0.16351710792748894
H 0.7974881552508176 0.6610752974358675 -0.09581124733537058
H 3.187195560870262 0.4510960311262992 0.8898233876284517
H 5.411937598710467 -0.3326849997664176 0.9033534301740481
H 5.075909088944827 1.1760953355011248 0.018656048128480235
H 6.365237237670587 0.09525817953057272 -0.5320362905951633