14

N -1.3422457824511036 0.8103120105055511 0.6528427185793443
C -1.1624048281707788 -0.3892052325838101 -0.15070111044276435
C -0.22981420939417999 -1.429709160816735 0.28100305334482545
C 1.0575210249078766 -1.1577844829021187 0.5514552243328652
C 1.6475783993369264 0.1094082250919184 0.1869603429790733
C 0.914637720721067 1.0567948155271794 -0.43265469947369883
C -0.5297250685170427 0.9659038958212478 -0.5414314901432785
H -0.7406420502760279 0.761663072347116 1.469447460252354
H -2.059358523725943 -0.6974383219477283 -0.6669795566364582
H -0.6183608563455493 -2.4345796234010786 0.3731369212052768
H 1.7058534694914829 -1.9327061134776873 0.9246181713107512
H 2.7090848170905075 0.23640017289227744 0.30993576248765137
H 1.4094222834616186 1.9248831229329488 -0.8750678081598782
H -1.0199932374439311 1.5491549796947113 -1.3173341493732649