16

N 1.6141957761860966 0.21620891408426204 0.9560670645063908
C 2.7302857600274595 -0.1279518504911804 0.1092072440919991
C 3.3543334604706376 0.8733217005293877 -0.8143689198863288
C 4.1186300918922125 0.38550878473803624 0.392396259363242
C 5.025469125056698 -0.7590248093352787 0.12574415772733782
C 4.354747004937159 -1.8385815045029634 -0.27815021932466116
C 2.865579258369575 -1.599506715626736 -0.2659770852545436
H 1.86195265135927 0.942915639376461 1.6115924749216846
H 0.8299809382428918 0.5327053380869781 0.40864337986363397
H 2.950981274763764 1.8767194617902276 -0.7716733129421622
H 3.696244925820487 0.5504569829802464 -1.7985129159330284
H 4.319488211346172 1.0847978530969178 1.1957787600807441
H 6.105397489608414 -0.6933028740363798 0.21898887089411176
H 4.802997799647902 -2.7723764342771484 -0.5715376031995917
H 2.367883362273794 -2.2212693312664897 0.47954467169645854
H 2.4103266213052246 -1.8231946826838497 -1.2435817347057123