17

N 1.0707570044570078 -0.15112499740965074 0.08149207051181832
C 2.4794877475560817 0.005424056666420879 0.04354600936724686
C 3.4830164127463754 -0.6087672692697593 -0.9790649545785072
N 4.5177665451346565 -0.4175320177584827 0.07903894890547328
C 3.4088166830983226 -0.7079032358889488 1.0486265755338546
C 4.523906952863581 1.064561086423092 0.1545588531922936
C 3.0214548963648116 1.4308634929802133 0.130671296143866
H 0.7781432488098085 -1.09583463361547 -0.09950187110185467
H 0.6080903366281419 0.45655871664208886 -0.5839241800165289
H 3.675031470435011 -0.08074015716277262 -1.923454415336312
H 3.325236002067462 -1.674478013102058 -1.1673225309080915
H 3.526139910046344 -0.27044164913778634 2.0503695022324546
H 3.245150687217069 -1.7810563829546198 1.1167567460041252
H 5.0794269448265545 1.4738103564827276 -0.6948463474879247
H 5.029013061369478 1.3924109241494185 1.0711343837108274
H 2.7349672259114386 2.028588764496937 -0.7394004090931346
H 2.67349553217087 1.9342887138695122 1.0246582901806154