17

N 1.532622291417947 -0.3716596924826678 -0.6774989743644193
C 2.75935338357879 0.010896960309151209 -0.06632849504640319
C 3.5651621192404495 -1.0766205592224822 0.5838971225339237
C 4.079682498747458 -0.4014443692318789 -0.6679421515673409
C 5.0310787247509525 0.7701669087050604 -0.48909207396639304
N 4.222363963841806 1.9418840289169135 -0.16810311051905047
C 3.001434626572685 1.429467374151402 0.47047258985004464
H 0.7873865307146325 -0.4358932758272306 0.010105822338295782
H 1.2434154427527808 0.2957593052578529 -1.3802367582136128
H 3.1968651174926825 -2.0805971535429992 0.48910411148169913
H 4.07652904620103 -0.8449285641879721 1.512792111490465
H 4.086416200034944 -0.9834211942210966 -1.577753432584363
H 5.631661531837858 0.9525544372910493 -1.3805119070186325
H 5.734217241624902 0.5738653795329847 0.3377378653052135
H 3.944878758345836 2.3850574516371177 -1.034457639258966
H 2.1533635383304883 2.0758644160138346 0.2624985399216491
H 3.1427043093433764 1.4131536953190516 1.563649500558286