18

N 1.1447237867792996 -0.011545577084978506 0.09847443833869489
C 2.5915592450966622 -0.00749660507026962 0.05165162368145747
C 3.1728797216890663 1.0513797173931172 -0.9264225395539938
C 2.818328336642828 0.0626961731479435 -2.051575956194162
C 3.1909890606137625 -0.9861531190158564 -0.979708842154055
C 4.688417536484354 -0.7438865668674794 -0.8021173484912727
C 4.6727042907704694 0.8153533060915199 -0.7557350407042389
H 0.7999801020314048 0.7799184466651169 0.6240161922395012
H 0.8041734108344578 -0.8479820475705591 0.5720309143053718
H 3.066596419609792 -0.030080166133354288 1.04761135491611
H 2.81791304546997 2.0802242572470004 -0.9214680503828985
H 3.421746076476921 0.0899531131067592 -2.9686670139604168
H 1.7513934902944472 0.061847781828888906 -2.285973475789784
H 2.843972849946058 -2.0193460145574016 -1.0469188882135783
H 5.267985276594533 -1.1417513881410857 -1.6248571546292936
H 5.062940271471581 -1.1882583064519658 0.12195459874491223
H 5.252643028365861 1.2622145617475526 -1.55850917490958
H 5.047970590787695 1.206404221974245 0.20168404013521873