17

N 1.0406981337739432 0.1164029508238237 0.13465683880637005
C 2.466247531737438 0.04948752454054764 0.004889689640492199
C 3.0875571106995947 -0.9260091274639353 -1.036089319782205
C 4.583619600842111 -0.6938839190946336 -0.8506805636384362
C 4.568208630110222 0.8532521182795532 -0.8308378309137564
C 3.05500660879061 1.0524096069777096 -1.0021058849344358
N 2.668231423367247 0.0699004633202905 -2.052954496468598
H 0.682390124828625 -0.6886576402319584 0.6315974020635332
H 0.6292787276955091 0.10828802130024022 -0.793040349837777
H 2.926979717015927 0.032370867755642664 0.9993342861646444
H 2.7280154817256603 -1.9532898022297718 -1.1583071851875006
H 5.1760291469708495 -1.10099473111826 -1.6732908382194345
H 4.972959692024855 -1.12588971790419 0.08206275713394857
H 5.129333163034446 1.3049852287741337 -1.6509926952660052
H 4.948243570041679 1.2852307477001859 0.09833095728642328
H 2.6675823434051926 2.0677709856805246 -1.0800793719745996
H 3.262405006807516 0.09129763182793667 -2.869999600685523