16

N 1.1186459084540776 0.10723751891116169 -0.5862026514773252
C 2.2789139758280186 0.0752339601218426 0.2414194424596374
C 3.5053146929793364 0.8204962647928797 -0.17953347839768244
C 3.6108178337837464 1.2825228373326596 -1.6201088072514727
C 3.6515782589416417 -0.005374242408019715 -2.4105291238776347
C 3.6188481450543106 -1.0723520525431132 -1.6215047515703775
C 3.504938564058293 -0.6874987166167666 -0.18403028323968487
H 0.5409485196045635 0.9066236635640301 -0.3622464878842617
H 0.5488915105303181 -0.7271194760227172 -0.48399532942104684
H 2.1255640118186836 0.05601407256957417 1.3164789659605767
H 4.0330484343448 1.376280884007648 0.5877834193127771
H 4.506462574881872 1.8878961716381821 -1.7841194016363884
H 2.757417181915525 1.890987865240048 -1.9277324655997417
H 3.6669946607463477 -0.024349680151114637 -3.492714683550979
H 3.6282472082626698 -2.1007033138521494 -1.9566422515026052
H 4.0187778224710105 -1.2762398123599326 0.5667378772685852