18

N 0.7571171101647024 0.2014964253408537 -1.3387880874832658
C 1.8587262497833557 -0.012053289168964726 -0.4423087433763726
C 2.7813519637013298 -1.2040950981723515 -0.5208419021932758
C 3.2578689978201516 0.17238751979058603 -0.9328007889246352
C 4.279287715807403 0.907735441421501 -0.100731666158423
C 5.679311447765198 0.4915365620014637 -0.4063056217899908
C 6.542977864396512 -0.017477273762013655 0.4702518302862301
H 0.018321642957588424 -0.4637107666818836 -1.1566706548947787
H 1.0516470736551293 0.0650620948658991 -2.3058799601847944
H 1.6642607874191921 0.365315823923007 0.5526442216001635
H 2.5964739435766524 -1.927078852711318 -1.2981676309036112
H 3.1720362900337653 -1.6119641033480756 0.40255079500863256
H 3.349387055928113 0.32313418125455823 -2.0011885785236214
H 4.0733298490038985 0.7435973692824195 0.9603245328804804
H 4.176381031015234 1.9794362548546707 -0.27652331678895364
H 5.99827469958256 0.6076877550084395 -1.4432439750996089
H 6.263886221665522 -0.14906763093218628 1.515814300239064
H 7.5412428763253185 -0.2974907223248556 0.19154944012935918