16

N 0.9003788791807031 0.12180160754534171 -0.05482761804389806
C 2.3286536503448967 0.07243419052028394 0.014054408736738275
C 3.172244348777151 -0.866305250247404 -0.8068935817141271
C 3.1393859916870066 0.6069351348421994 -1.1006565537930755
C 4.3717416730320835 1.4483762278947323 -0.8439142033472683
C 4.076653470452866 2.8640678600123164 -0.6817881223305072
C 3.8154636218320896 4.03864990658025 -0.5683882272880267
H 0.4844060983041498 -0.7414591740834903 0.3055999935741663
H 0.5795074473253469 0.24387340789933934 -1.003087903276831
H 2.709883938180992 0.2941450849851156 1.0087141526242347
H 2.65843880243444 -1.523146946902934 -1.5000783084279299
H 4.070028072145183 -1.2743809705814222 -0.36701956487454057
H 2.587855180041039 0.9111947954686586 -1.984684724337443
H 5.085897895745263 1.323468745233181 -1.662400474732596
H 4.869782780791305 1.090747416977504 0.05784144630195894
H 3.5846965496693355 5.061793039084867 -0.44612715509700424