17

N 1.1161072375603098 -0.3507254859625408 0.34626836682686674
C 2.526771565377478 -0.36621814254650253 0.10044569946687604
C 3.139439533580344 -0.5451517502639421 -1.2756953356699314
C 3.1612063861737894 0.7906447399634106 -0.5856182026970721
N 4.424143588112982 1.267289843117398 -0.10283976073184119
C 4.997458042121373 2.394973636175687 -0.7992136746258995
C 4.40920951360772 2.5546983897376085 0.547200433508177
H 0.7373786536773924 -1.2907963637502995 0.2550047289204754
H 0.6327535435142776 0.2337458215073489 -0.32307305891897165
H 3.1060091847463824 -0.7710266100272432 0.9181959409224989
H 2.4651282437435866 -0.6611445404229936 -2.1127645765461023
H 4.07359201267224 -1.0745179654985095 -1.3532524605155773
H 2.4787912677073773 1.5551026482404982 -0.9764437797169718
H 4.434521730521808 2.8028862831253907 -1.6378902841365215
H 6.074300157198972 2.3723591235970325 -0.9365309582868919
H 3.4541786988764116 3.0760840623083014 0.6178134057073417
H 5.052153199987749 2.6587212252429833 1.4214352486770494