15

N 1.6109807284693947 0.16705302147452974 1.0603442277260957
C 2.388053083910721 -0.020093287841254266 0.07338953474709867
C 2.9692855679149193 -1.3117046455834074 -0.4770913194118613
C 4.116576698786003 -0.8584000983624677 -1.3488401998497432
C 5.1802984266264795 0.010309432742219404 -0.731618557817588
C 4.021925674055864 0.6361238550144666 -1.4606232239129842
N 2.889308321474922 1.0107874128319339 -0.6779773841669954
H 1.3306499743028999 -0.7264908512858252 1.4666786754153396
H 2.211391562603738 -1.8185358214523657 -1.075240447453031
H 3.259436645261488 -1.9748734989941428 0.3352045823794141
H 4.386124252149761 -1.4502116297878473 -2.21215629346596
H 6.149886761326427 0.020925909189983258 -1.2155952641020706
H 5.194502410622845 0.11417131867605598 0.3519935034077809
H 4.166471745408558 1.1545443613526771 -2.390043220101424
H 2.8229827179256284 1.9363952889096883 -0.2850989593763738