17

N 1.146858929534217 0.08359508143446719 0.5500778891076408
C 2.5279785747452483 -0.091049364166843 0.1192192045123055
C 2.8392485099599023 -1.493900763415889 -0.45312135285313976
C 2.5824889825939303 -1.3758316995328423 -1.9355614197953661
N 3.7168383282246906 -0.7864623886045312 -2.666337869923485
C 2.579484597684806 0.06435070015582423 -2.300183684111087
C 2.817170819133157 0.8696800216715925 -1.0406072279565917
H 0.9028967325571507 -0.6013468413390592 1.2511744966972755
H 0.5236056742922952 -0.06804696061315894 -0.24137675763766542
H 3.1614834532034384 0.12937560076934632 0.9848232573451007
H 2.212582233943624 -2.2571178041399578 0.02126859670929612
H 3.8820725563270697 -1.7743051598780217 -0.2796814787895082
H 1.9583176096716755 -2.0949220843558054 -2.460396059351858
H 3.6623384004606434 -1.029088501841031 -3.647069543203797
H 1.9434612813401129 0.4504242620781311 -3.087190781826566
H 2.1661004317919175 1.7454749792161133 -0.9658873695374574
H 3.8590704048231723 1.223111891132422 -1.0213253363277648