18

N 1.0108166596025463 0.3667636380243283 0.026213234277574417
C 2.429634895456428 0.11190945629903193 0.05359678396393111
C 3.226051908810095 0.9483929221403289 1.0881144044467819
C 4.081617816515191 -0.2882135996278214 1.3991737129608852
C 2.9887561641880853 -1.1584173018861221 0.7686791252658391
C 3.022414205118306 0.24564018552504546 -1.3153148242154404
C 2.39015139132103 0.6889977807938839 -2.394307999723055
H 0.6099337207928459 0.25024093982361706 0.9531671770522077
H 0.5375432331036012 -0.2782227062891681 -0.5986023160338292
H 2.57378185116576 1.2076685220891512 1.9320748200159858
H 3.7095916283133286 1.8577349429599381 0.730933385736562
H 4.327606503303048 -0.47820167750635556 2.442985101500165
H 5.009017567791997 -0.29650097418822485 0.8260865338083405
H 2.27495464736007 -1.5137593270350966 1.507429404621102
H 3.2899895519333064 -2.0000511748748364 0.13438477823072043
H 4.06088691155924 -0.051649774907417456 -1.3994850633374154
H 1.3615926431668604 1.0252282607515024 -2.360824955225103
H 2.9024670137560022 0.7575524902068473 -3.3502723820145017