18

N 0.7927517187632397 -0.2959356981360658 0.15706442937809678
C 2.2043054778541147 -0.07180688231985581 0.08542820261284576
C 2.914046753877908 1.124245131484334 0.7763487579294281
C 4.065866310698376 0.16826159203233454 1.1814208496719008
C 3.102902318041589 -1.0153539718988724 0.9186110629192552
C 5.231925491518856 0.2155243364613684 0.25471172850622326
C 6.500172280038525 0.3541577619827018 0.626985031131782
H 0.279928097196654 0.3712615818042084 -0.43100954576140815
H 0.4490128340014358 -0.17657014216392558 1.1009141112551035
H 2.497642103290936 -0.11925628927026548 -0.968160724325025
H 2.3469658969263305 1.4449170456377043 1.6516977831925475
H 3.156199148381444 2.0005088462266727 0.16864701158717316
H 4.420772176379691 0.2676138941104191 2.205568129055864
H 2.586121032303387 -1.30827635144336 1.8368949443296305
H 3.491265570303537 -1.909849395734889 0.4319747173302657
H 5.005606278352916 0.10805760508806432 -0.8076221048375953
H 6.764346681011694 0.46190280016050256 1.6760131326672827
H 7.304766349322056 0.38196602097232557 -0.09628061393488696