18

N 1.0284059202784317 0.03781370996031623 -0.31421603169777285
C 2.422688051972903 -0.001526280428918403 0.047419757702182645
C 3.0739765844746296 0.988153656658713 1.0399345863331353
C 3.9277332831984837 -0.18141499991245205 1.5600331988041536
C 2.8831103231365205 -1.1474130228286854 0.9742436738357413
C 3.263086688618073 -2.439543205137987 0.3632184650671671
C 4.463356633837892 -3.010405699789057 0.44665757095061015
H 0.8313910020224424 0.771471840859037 -0.9759263617950705
H 0.4448439425863723 0.21110026412194133 0.5086818323225714
H 3.0025306419199307 -0.03218202491943754 -0.8817230016564118
H 2.3405612564569998 1.321120005048691 1.7875104155621846
H 3.588601759385651 1.8715647567165385 0.6396884881310566
H 4.114838425832394 -0.23413241224853 2.632519010920798
H 4.876623043908196 -0.24543021528145914 1.0344200414045142
H 2.081492789034686 -1.313609237468204 1.7063157714115689
H 2.4768362959650347 -2.9407268556258934 -0.1963962594257555
H 5.27961668058353 -2.5607765737453874 0.9943202833592719
H 4.671449914103606 -3.9585456328754853 -0.03548510086771723