18

N 1.589696264257181 0.47790513254037187 0.7040092380019743
C 2.6294566760381555 -0.16686586875283094 -0.07554423353070065
C 2.361189186762408 -1.6000877999900687 -0.5611383504881651
C 3.244397603052329 -1.787698556699584 -1.7971037645112011
C 3.334241646231876 -0.3958066318356171 -2.3998776799211456
C 2.057037958062742 0.37874351761326 -2.532296670546802
C 2.952113687932609 0.5948076570032019 -1.3445093144671134
H 1.371740770126145 -0.06934879393512665 1.528970774012068
H 0.7321762382915356 0.5401538227218817 0.1547579253832239
H 3.5352024470199344 -0.1618456539986502 0.540884991003966
H 1.3096207845232395 -1.7035871673421275 -0.8171859917419864
H 2.570232571063354 -2.3485202798830707 0.2127193865151057
H 2.84779962283194 -2.5356438956194487 -2.4902856787820027
H 4.2502598236998 -2.112625889232222 -1.5139276490367397
H 4.132708011687934 -0.1826124599751838 -3.101237903180975
H 1.1077270069034442 -0.14041160556372292 -2.4076719010620806
H 2.024220893887988 1.1682392805746586 -3.2702592957217864
H 3.4507880332953715 1.554293565107821 -1.2531301918730227