15

N 1.4646940288916575 0.38457713949510625 0.3218116304644636
C 2.575572101543342 -0.0914741938372834 -0.016209454848633773
C 2.985405179883104 -1.5227295264075398 -0.2876076434083337
C 4.197021054103088 -1.4069713264639085 -1.2268505936024259
C 4.6860758202032855 0.013849433756668899 -0.9931481201695171
C 3.9282892005306795 1.1312763915461166 -1.5998847178126183
N 3.703470952674138 0.7561130884530651 -0.20317913137732563
H 0.7805395117224321 -0.3534241497442132 0.4175595592822649
H 2.1575441926669936 -2.103374462504336 -0.6895670607330138
H 3.2750675506337834 -1.9809561267314586 0.6584522873122184
H 3.9226588538871816 -1.5774785399895228 -2.2649038079061157
H 4.9734942858793625 -2.135040016413923 -0.9739113524638922
H 5.7258960417637725 0.1654546252101935 -0.7120938530188393
H 3.145405824027876 0.8815542583785255 -2.3056672641255838
H 4.397751645111942 2.0948819437473833 -1.7423209018812449