13

N 1.1657723320864761 -0.3014588561153869 0.2920350623895629
C 2.375099920981782 0.08516663748408729 0.251710746344611
C 2.9789388681772424 1.3215993519059683 -0.2577991016794257
C 4.30694917422035 1.2351093553954844 -0.16351592624217476
C 4.6795267276343635 -0.060443667316693504 0.4324310687723421
C 4.278072630276142 -1.2842939726542917 -0.3234759772699323
N 3.4281878775557093 -0.7579212536571432 0.7386791661477097
H 0.5655119002178356 0.4079534661430492 -0.11304758639634344
H 2.415661956940127 2.137318514618892 -0.6892529130261917
H 5.03374443624617 1.98150078940062 -0.46058808615540603
H 5.465591982741699 -0.12067679236084226 1.1808497802671065
H 4.752148641921049 -2.236540271522913 -0.09410199885190478
H 3.9543502846846943 -1.1515339088264116 -1.3418530956362933