15

N 1.0028175770784875 -0.28033059499505114 -0.12891521376569323
C 2.411075133945577 0.05171199641443605 -0.024623816804023944
C 2.777732761050271 1.320800712675281 0.7166773716840654
C 3.727072301501185 1.1123233335597595 1.6263269858395129
C 4.07586595250435 -0.33295939515929307 1.701970630204592
N 2.9868191853021404 -1.2132293616693492 2.1423362965773465
C 3.2166944245503735 -1.01308985243758 0.7114714653585411
H 0.5018782907979704 0.4383725004749886 -0.6307346339187953
H 0.5805243117868479 -0.33977759163983257 0.7953570920621297
H 2.7986878357072764 0.10359942707879215 -1.0498368614895288
H 2.285560754792329 2.266231019489697 0.5157909861138185
H 4.162765100433471 1.865233394006966 2.2718734652122796
H 5.076588135543495 -0.6641649798211624 1.9575197145231886
H 2.2164062778310285 -0.6374246646780044 2.4782148907066457
H 3.5191005207401154 -1.9002118718264793 0.18041172284294096