20

N 1.0124284969538027 0.19446058886070364 0.14280702688994729
C 2.464604837469697 0.09183448505219022 0.003907591964351896
C 2.9749084841211024 -1.305630933181208 -0.3893816648320549
C 2.6024299746646062 -1.6843098876397562 -1.8157065206588803
C 3.092916811144358 -0.6433316678310514 -2.808857100547548
C 2.5841855492844403 0.7540730733835967 -2.4452434567852164
C 2.9492648416322385 1.1211855468160477 -1.0101920665649737
H 0.6822074382818824 -0.47919050283392556 0.8346692373411012
H 0.5412236941314867 -0.031006669103593697 -0.7214060952654939
H 2.8830859810936955 0.35034265232023315 0.9789529685639745
H 2.583615540519017 -2.0441340236555963 0.31885071175161006
H 4.068548012291746 -1.3172369000133803 -0.27975540592973935
H 1.5086923894557067 -1.775294268598982 -1.896476867858431
H 3.005482530944711 -2.6670756431899116 -2.058766937023336
H 2.7883245658088485 -0.903414866817325 -3.829251154305793
H 4.192034619565658 -0.6345715214360672 -2.804211546385811
H 1.4959904550899037 0.7857185656288782 -2.581808097284131
H 2.9903652096262032 1.4977186504391256 -3.1358331569532902
H 2.5380979052868264 2.1039403255713642 -0.7528489079427018
H 4.03449842022262 1.1956218096202715 -0.9379050516162759