17

N 1.1415042624344123 0.05803157705512502 0.4662349057414064
C 2.3458256310916643 -0.08269139826412755 0.04962485721118108
C 3.0715965273269705 -1.3912663731420103 -0.10857897320694121
C 4.0823707899936315 -1.3834474348642123 -1.247491929367366
C 4.986151564848206 -0.17624672055269092 -1.1263174175368216
C 4.1585813350458904 1.0908714319603023 -1.159433238852542
N 3.0929196951864957 1.0482618542577968 -0.18649694321119922
H 0.7402952666705738 -0.845830375304023 0.6759243972022122
H 2.326177684830946 -2.185358521996291 -0.23949656860854734
H 3.588362109545774 -1.5866051615324681 0.8326791477622418
H 3.5598406008472696 -1.3544050902489009 -2.203706557226887
H 4.672554155231298 -2.3123066853308822 -1.2302673459905251
H 5.718797651160111 -0.14772833622092527 -1.929812968923522
H 5.541283441747381 -0.22173083428684034 -0.1790871942884222
H 3.752064372195133 1.2242450311862063 -2.178149472284647
H 4.776492942302199 1.966940592339307 -0.9426830430709121
H 2.5365822177749395 1.8858096442451082 -0.092139369379508