15

N 0.7780232052089758 0.13613600316004196 -0.002131137712297974
C 2.0455786847741653 0.021255517949604827 -0.004160112173118052
C 2.78344708140243 -1.2999524272692125 -0.0022962685677759354
C 4.267622355325609 -1.2079305221706025 -0.0012123596578280686
C 4.921282668185662 -0.05691180295608408 0.005974323196376753
C 4.234603738688546 1.2567613541117522 0.00033290397713859514
N 2.808078899128754 1.1486910078008399 -0.0014748377120827952
H 0.3421250728136237 -0.7836154087904562 0.003217480082189478
H 2.438567950806867 -1.8763951601256874 -0.8673475193302653
H 2.4382683793628566 -1.865379018552433 0.8759301337398975
H 4.820364254884727 -2.1492130268042042 0.00558813029164459
H 6.008255581066937 -0.03986729708788304 -0.0028335836237560292
H 4.572424974517557 1.8268038512070268 -0.8819133479373065
H 4.574705047888839 1.8363225080253724 0.8784033439756099
H 2.2707276960965808 1.9984164738904204 -0.0075176673405914565