13

N 1.0800247042290516 -0.06880170060758525 -0.002503404052686189
C 2.449571612028853 -0.05066324487586576 -0.07341492653898592
C 3.170822851699854 1.1401459926584576 -0.15552240459236732
C 4.547697838711299 1.083242603976946 -0.2362333791312463
C 5.178422745632212 -0.14708279028522522 -0.23827538447672436
N 4.500430680677506 -1.2895475157918808 -0.161777987866324
C 3.185445007748065 -1.2364711606324976 -0.086697069564293
H 0.552303751752596 0.7819291066337271 0.005130607211487682
H 0.5852094349134496 -0.9328976115158936 0.060029207907436176
H 2.6520054229931604 2.0969654605670303 -0.14806640395665802
H 5.13036399172396 1.999422752602056 -0.2963008528486199
H 6.258447089894709 -0.22895960743763455 -0.29208988332353364
H 2.6569179496238537 -2.1939816200716056 -0.02760608362837502