19

N 0.9300463864370286 0.057310434653271944 0.2426292012978027
C 2.3712864400157208 -0.051730317229099154 0.055269229548004464
C 2.866827294832344 -1.446902380958243 -0.3607113930475831
C 2.496769101293891 -1.7743217487236267 -1.7905635079055746
N 3.0340884635867447 -0.7530154980606234 -2.6759846855861222
C 2.4815670229697715 0.5528574538813772 -2.3932745228679497
C 2.8403370179825567 0.9742402756367086 -0.9755980458735186
H 0.6145315207112716 -0.6238702109255188 0.9250321542684015
H 0.43661486250438214 -0.1631683697533597 -0.618974008872708
H 2.8292796152320596 0.19710165374189048 1.0141738052049283
H 2.4559949593899075 -2.200012345792966 0.31489793969718194
H 3.961401091098674 -1.4798357808897393 -0.26300911300073965
H 1.3972016365409707 -1.8608592531834187 -1.8749653938341426
H 2.9165361676603143 -2.7417842822484637 -2.073653546099796
H 2.876007195303109 -1.0114154732064566 -3.6462509888286463
H 1.376813602737923 0.5822833602732952 -2.5181787380621596
H 2.9000781649544582 1.272672188742744 -3.106474890492881
H 2.404801416091399 1.9467895956041785 -0.7443825457576683
H 3.9281882309948943 1.0631996950852987 -0.9126438721719161