17

N 0.9146130892391644 -0.08957350752624475 0.01241237932819259
C 2.3785468379183214 -0.08491622220803668 -0.03182937463215682
C 2.9448683992835445 -1.3510321243719718 0.6127260001533817
C 3.2397848433196645 -0.9838519817070444 2.082167165580534
N 4.397496393815344 -1.605587936885773 2.7092457274261843
C 3.3577917125668093 0.5108660184704873 2.0157914872443854
C 2.9144528148795317 0.9953154752597868 0.8695582804849004
H 0.546666410472003 -0.7192696933833365 -0.7050246875878334
H 0.5518800176222743 0.8376753122431367 -0.20698920728900347
H 2.7595423670798995 0.036705204155717444 -1.0619784888735149
H 3.8909909035626 -1.6151952043305007 0.14004485244298084
H 2.2679374943321213 -2.2026873022407076 0.507758170574683
H 2.3853059631687032 -1.233711083906804 2.7189932435763726
H 5.219333416547161 -1.4728331001884578 2.125937239284811
H 4.263518865936727 -2.611703959232839 2.796205992397426
H 3.7420496154482707 1.0829608106596087 2.8542407658031754
H 2.85714457967701 2.0558175673166934 0.620368635686224