15

N 0.8300337723120715 0.04901918348159539 0.09730518180478705
C 2.2578251956502635 -0.010673989494255647 -0.03234331955064989
C 3.04449057818768 1.0434268671564229 0.794905870602423
N 4.035139871555358 0.02055802882456692 1.1219689822587033
C 3.1027074299024315 -1.0564462028808252 0.7785789311374279
C 2.6166104103074863 -0.00951242473255564 -1.4411431167769588
C 2.909826608553097 -0.03354357412675019 -2.6102566418293605
H 0.5504775970365696 -0.1536952484067872 1.0470319846160334
H 0.37085132914663815 -0.6169963450934222 -0.5114408331699865
H 2.420990802206434 1.3763761629045266 1.6318219484447656
H 3.4326747270364066 1.910446355193333 0.24959768920637568
H 4.370162814686844 0.020637648618444405 2.0784676810529388
H 2.50075802149008 -1.4305243535799146 1.6147424108077044
H 3.5344205397249597 -1.8888632756487813 0.2319329264895224
H 3.176178781325356 -0.04088708111445571 -3.6371063519693316