17

N 1.306487706482959 -0.2956839148914996 0.4190322539122172
C 2.6854401811111446 -0.1908419161078232 0.06034176740278959
C 3.256859317483152 -0.7393891242661224 -1.2310375178029855
N 2.424530916199636 -1.4907745002948225 -2.1104055431230657
C 3.1019496309916375 0.7522594949245858 -1.037046163752987
C 4.239369438724039 1.683158783000606 -0.8463090673773775
C 5.51500428059341 1.413860102517229 -1.1058150450762496
H 1.0433406087606436 -1.2393106872783046 0.6779180619940204
H 0.6793694713581087 0.03637729423343296 -0.30395180441553954
H 3.352923831152872 -0.23420333770873736 0.9170140351394204
H 4.277343643789339 -1.116654083888668 -1.1538962736434528
H 2.3925459290402893 -1.093692497028294 -3.049391487249276
H 1.4793168012866473 -1.5405897025773854 -1.7606274857444273
H 2.2589682814378675 1.1840048948496067 -1.5733391443281328
H 3.9798561843596345 2.6631184740256337 -0.45659109192515207
H 5.829323237499582 0.46306053301106825 -1.5119594212277754
H 6.2829256979389 2.157344288418994 -0.9278761308685781