17

N 1.1507084158596634 0.08806790838171313 -0.31352584753943724
C 2.5289053456542385 -0.015538346707480591 0.06781026844679214
C 3.176141396082771 0.871581434781108 1.1600940346999273
N 3.9010117195071583 -0.31959651861459426 1.6335405639570533
C 2.9230593513281073 -1.2040687926432336 0.9750428835524968
C 3.4255346612801203 -2.4611868624995283 0.3657302942293896
C 4.7031562124787865 -2.835908481722174 0.37696938794910767
H 1.0054180656928484 0.8338377525938306 -0.9884571240203045
H 0.5554605075799014 0.2737868021225617 0.482980024675725
H 3.140686635109886 -0.024317608110948925 -0.8344747346879773
H 2.4129096552366627 1.2350476556625238 1.8502304737247335
H 3.8071783924019833 1.7064231504005674 0.8484971495249782
H 3.973099059984429 -0.4174710477515301 2.6299280736963766
H 2.051790644848509 -1.4395738928141877 1.6198543774452034
H 2.68042516202554 -3.0717144649064894 -0.1322375736982492
H 5.456523158023088 -2.2317692703100285 0.85589496907342
H 5.011943549925072 -3.759559975508852 -0.09890142224065696