17

N 1.025182686022152 0.3103115838053276 0.20708053813742577
C 2.402133583781128 -0.043184509637847715 -0.1268328726379429
C 2.693202701731293 -1.5302456985584398 -0.4694683730670282
N 2.856275156461681 -1.6430417531377288 -1.9165363719013067
C 3.201824549776743 -0.33475300720471185 -2.425182176962587
C 2.0832450128406372 0.6452979470637324 -2.616717866628473
C 2.901678219736426 0.6793533871842277 -1.3660727320201824
H 0.7118309458139325 -0.21859960862615183 1.0146099356238953
H 0.40404686343216356 0.08878653542141002 -0.5610054777994972
H 3.011190785632528 0.2557802771226918 0.7270341475871979
H 1.9042545006584222 -2.203243300417585 -0.11023977195404752
H 3.628537218454514 -1.834893068584542 0.019802348973172828
H 2.016865423961489 -1.993349625598995 -2.3585351664621617
H 4.092152826449751 -0.26601816623063573 -3.035355878665172
H 1.0730090313496452 0.25493785651813833 -2.59976674268424
H 2.229741515041215 1.4533138242962946 -3.3249924378805367
H 3.5468391475014154 1.5367327557629737 -1.22391508711703