17

N 1.0014949224783234 -0.11153414036485174 -0.021048808541530833
C 2.4374764520785166 -0.05194490260761963 0.12324633364289304
C 3.041660193577413 1.0305993098745099 1.0180668606530092
N 4.388732671232066 0.5326762080952541 1.2259184105162333
C 4.264242975852079 -0.8942479572815968 1.50332867682636
C 3.0301253878853083 -1.301884420842566 0.737905193095686
C 2.500466359986856 -2.5109724833422264 0.664783230704723
H 0.64350600097868 0.7219025244728933 -0.45650916247798606
H 0.5582416386287657 -0.20831954229453375 0.8835949969778109
H 2.869377718853171 0.06916789744574982 -0.8692102225738022
H 2.4425147884559393 1.1099220246994255 1.9449599573813432
H 3.055672416691867 2.0201713500365486 0.5464514052844281
H 4.898452415661967 1.03035488481905 1.9494685809956123
H 4.11256859390619 -1.1210619331976672 2.577592759438598
H 5.158911321374923 -1.4386355958838042 1.1791788536326797
H 2.959688542866696 -3.372627552905258 1.1531130198234911
H 1.5809408242409888 -2.679086987515986 0.1166981471937934