15

N 1.0003188033552348 -0.09530058677739878 0.08478913028672037
C 2.2763533177198285 0.0030040511499028473 0.05822838381438094
N 3.018497293108304 1.1413618827155843 0.30313995341994754
C 4.370366787390478 1.247166886429856 -0.20688208560222118
C 5.167461231619881 0.020742859325733283 0.18543558042672786
C 4.388979556977264 -1.2279000916056697 -0.11038073789886284
C 3.0594502724262114 -1.2089272983988566 -0.19203179984063115
H 0.5606552229270911 0.8059310479524037 0.2710381065026813
H 2.4827000021599934 1.993863745777923 0.2762761714199905
H 4.821937784634517 2.1500345939756422 0.2011009718543444
H 4.378494892077573 1.3327043271788217 -1.305584306393005
H 5.413360648228715 0.05735083129228608 1.2609603642827005
H 6.1168212543068305 0.017607756896172336 -0.3474107963566162
H 4.936244100397127 -2.153624629076254 -0.22698041038962488
H 2.4850483843216256 -2.102611206939243 -0.3853782981342572