16

N 3.082720480687729 1.0782454885941106 0.549142870654844
C 2.498469081887849 -0.08053585733440663 -0.10009131528008237
C 2.987356667478286 -0.19178563126924858 -1.5135731786186524
C 2.218602679952671 -0.9607826669773145 -2.527542027501829
C 2.251302229389516 0.5444048896820322 -2.6053537624142993
C 2.962817529062118 1.2004861437012664 -3.664086639988661
C 3.570956573274217 1.742217161259519 -4.550721579549569
H 2.7464720975287182 1.1563683948830457 1.4976677041218012
H 2.8261777729311004 1.9185458225247622 0.0625867357229987
H 1.3932956458755097 -0.09265273580954331 -0.11554131042165453
H 2.803228399841388 -0.9806418648839851 0.4461463237441347
H 4.071113626957445 -0.19993792270774083 -1.619922270617359
H 1.2732335902692864 -1.414735866312763 -2.2226002916324936
H 2.76484348268217 -1.5010515324951625 -3.2919262605360426
H 1.3331435458050465 1.0481840674819962 -2.2934768687403055
H 4.108951867400869 2.2230607021759092 -5.329502472316711