19

N 3.006802045420171 -0.9203742489858356 0.7467568017480009
C 2.414454582579138 0.12968873489742078 -0.07862022726437566
C 3.1665474091847656 1.4323653598631767 0.07603030371474812
C 2.5914223396993603 2.68705171211006 -0.6037002219657378
C 3.0534121974195996 3.504868226671841 0.6201541049109608
C 3.10820107990008 2.200054484925407 1.4283981455637094
N 4.128799473908753 2.1071536068384504 2.437415106866938
H 2.577724024245485 -1.8099664725403155 0.5588933553463553
H 2.839400740536146 -0.7280598656396848 1.728220695423856
H 1.3490635574145575 0.3115822391880784 0.1420981785338024
H 2.4705321989344133 -0.19761658374096888 -1.1208159024349342
H 4.212970118135823 1.280730133851342 -0.20536855055679698
H 1.50941882900872 2.6432588209844368 -0.6637915915091926
H 2.9891088294756343 2.963648861920797 -1.5816082920176049
H 2.4177379421925234 4.3147374682007475 0.9908979504531393
H 4.0621967759778865 3.9032555952721797 0.47722674041198704
H 2.1361192566821487 2.0181723526028064 1.8988888520235467
H 5.053341158083083 2.2189116610935273 2.0123394949872537
H 4.120768538784809 1.1961946236807621 2.887518870096277