14

N 0.9255598134921083 0.10948166382750313 -0.14195633233293392
C 2.0771051771302766 0.09223839846915624 -0.07814688962317293
C 3.533267221677379 0.06147486578332703 0.0017310606175760105
C 4.0809588517272095 -1.225050600384059 0.6630393024928752
C 4.421828445642991 -0.8372348356346633 2.113971634403847
C 4.5249040849178765 0.6565442462368145 2.04802598356471
C 4.046662112730992 1.1511054293340948 0.9139748679462087
H 3.9100297788236156 0.16978767316206644 -1.0212381776537671
H 4.99555905474268 -1.5138042219281032 0.13332791403007233
H 3.37931805550364 -2.057093770620294 0.5955642439914222
H 5.34406239223454 -1.3180476870569486 2.457748831197629
H 3.63797506296686 -1.1322310178238848 2.8108004694870403
H 4.920543662112799 1.2507650457676518 2.867431731521744
H 3.9729271886919806 2.2045467584917273 0.6650077365501639