18

N 3.5469770210060325 0.6904888750202222 0.7379785263471518
C 2.414257463467186 -0.0839085125431467 0.21521840648631801
C 2.8368719875589474 -1.43637425339433 -0.22994403665907237
C 2.3800320232065557 -2.6034337757342243 0.212884193424035
C 3.0554726561221073 -3.77838114202735 -0.44691532122655403
C 3.778103896564744 -3.122177609726604 -1.631121598047499
C 3.9141791676567186 -1.6444436394059199 -1.270580640786834
H 3.231482534310852 1.6056706617992422 1.02525326536644
H 4.233430709874712 0.836309362767313 0.002792374613951568
H 1.9087819895635847 0.4166395837531902 -0.6339852949842115
H 1.6743281855491439 -0.1794086933051214 1.0110743246804732
H 1.6331687442000218 -2.7177906762395176 0.9929866445295631
H 2.3511613009407624 -4.550407004133674 -0.7572228888575876
H 3.7550627339609988 -4.248445274153624 0.25554096284752587
H 3.1644393639464097 -3.2228938815982833 -2.5264741356807954
H 4.7440354674023 -3.5966173912419874 -1.8582626638047186
H 3.8025392679091667 -0.9770472576276363 -2.137251053413614
H 4.901237689342584 -1.421166903859196 -0.8310528997755323