16

N 2.417212650762268 -1.6248303661355463 0.060750298078440644
C 2.4689244486860873 -0.17711159634562915 0.1437741729720359
C 2.949343718394412 0.4318688885582377 -1.1699079248961
C 3.08678267978118 1.9175959121659787 -1.1390251953241075
C 2.373271291186436 2.444036155306912 -2.15012707632092
C 1.7257955356926904 1.3696968515149155 -2.8883623535622727
C 2.04448870968087 0.1935522230327861 -2.3320555317271685
H 1.963132309299411 -2.025583780379981 0.8652657041559344
H 3.3531788774034013 -2.0182199534232397 0.034378704385104326
H 3.117289483474334 0.1960925437111497 0.9600677363636041
H 1.4544971054397458 0.193540016203199 0.3470714182680227
H 3.9358924791160703 -0.003618851220185876 -1.4001893698046304
H 3.6735139885682466 2.46746220186097 -0.4122963331210891
H 2.2922151264203907 3.497464441932874 -2.388394676209514
H 1.078084257772925 1.521024730108889 -3.754835614307271
H 1.705635569315588 -0.7871207398124354 -2.6276689149734156