18

N 3.461548005260805 -0.7844828979594886 -0.7181959451779385
C 2.464652747233456 -0.13429559083888812 0.1219765573638711
C 3.0682970854955984 1.034599240744634 0.8874264749288273
C 2.0514743660953805 1.776301888254078 1.7790040094545991
C 1.7284805907867578 3.102098853126795 1.066915278314524
C 2.834397801990985 3.231889800332567 0.06514725754185943
C 3.565203990680579 2.1254613806869376 -0.021394714946779882
H 3.0394960415844334 -1.4934152892894668 -1.2984745535217486
H 4.155778812693068 -1.2480217502977695 -0.13389121426404563
H 1.9888353549905335 -0.8119400917558873 0.8412275763922433
H 1.6687883316597305 0.24671460562733594 -0.5361436433725504
H 3.8959888237834286 0.6345218818457932 1.4930692486441333
H 2.491002828370698 1.975874115259408 2.7568815089756575
H 1.1543266963898213 1.1654244147295971 1.9581418528470336
H 1.6838918443493287 3.9490744746247928 1.759830912949259
H 0.7528161630897143 3.0783980013345835 0.560954691835989
H 2.9754901259112367 4.1231596785533915 -0.5431893710360809
H 4.388512080159625 1.965832080488535 -0.7081281660939129