15

N 3.450318481217717 0.49556453529578065 -0.8127811772270712
C 2.5643801157291577 -0.29161109794722967 0.01956965152426146
C 3.0484789651567654 -0.3155045958761383 1.4336405717930216
C 3.8012426750134463 0.577113726492437 2.1352854354887367
C 3.942933950366024 0.06843061151967408 3.458294133766911
C 3.2757665842882897 -1.122725634490151 3.507383078624923
N 2.7351296435400076 -1.344652494956964 2.2728137742692924
H 3.1049270216098845 0.5376309036033545 -1.7684856986846031
H 4.376049949562946 0.08448291000878334 -0.828867427084149
H 2.427870168892605 -1.3400301292929424 -0.32067514550875353
H 1.5693774789691763 0.1710533397060511 -0.02174997534103764
H 4.204005479327711 1.503606740180694 1.7474407835596097
H 4.486643663538439 0.530932377606247 4.2665833499875285
H 3.13529420952395 -1.8239364634642055 4.321072357157799
H 2.1934443361659035 -2.156526222937958 2.0190978875402554