19

N 1.0844033410994647 0.3146133688201712 -0.013764062812725077
C 2.493381787314568 -0.018492967301780183 -0.15174715228426255
C 2.993238192597593 -0.8189649783141721 1.0272526954212728
C 2.7057245698036496 -0.22905971226028646 2.3763749917609256
N 3.1286998413169678 1.1592848127323219 2.452612301136576
C 2.9812246634412256 -2.3075496458031073 0.9210565239853301
C 4.277989440648166 -1.5692298732736547 0.8382482540996604
H 0.7271076176260695 0.677602630543516 -0.8942368397280613
H 0.9967817671571092 1.0672777647606781 0.6582048561807492
H 3.1343930606306354 0.8733075086050037 -0.2640854564212094
H 2.620144067235899 -0.6188024645103813 -1.0644848913468388
H 3.1620887880166215 -0.878267878690722 3.141053626616481
H 1.6183299307497396 -0.259554681882225 2.5514104432352918
H 4.132778381317835 1.2274543184428306 2.3390469690029616
H 2.9080176763960868 1.5600900623282117 3.363706110867254
H 2.5801905815349677 -2.751111460298669 0.018496711383089764
H 2.7744437240844495 -2.8821439364021564 1.8277540959201597
H 4.771063624227825 -1.505707445841149 -0.12606274752391125
H 4.964893104597368 -1.636721084159721 1.6766454653808494