12

N 1.039422916742946 -0.056123685732556605 0.08710558829211931
C 2.1882612107558366 -0.06716495733335727 0.0708840380413472
C 3.654798280580109 -0.049920666298533985 0.0560867898205957
C 4.267687313718814 -1.248332079814809 -0.7448074983349291
N 4.668489444087045 -0.6907431237825297 -2.0275181084317877
C 4.582759942762401 0.5618082200263217 -1.9279166564832444
N 4.1808597043096505 1.0749229988821223 -0.7066129839939341
H 4.003388161208784 -0.03491977706029338 1.084653612969712
H 3.5552055984826083 -2.0573969460870747 -0.8747770289671134
H 5.142814210591995 -1.6381287772140072 -0.22362429010041665
H 4.847786091757204 1.2514604196823647 -2.7242815540878085
H 3.681505134431387 1.9510766879601806 -0.6772644124933518