15

N 3.4792570971629373 0.31957435660524053 0.9620063515280819
C 2.5018039030018957 -0.04446404402821194 -0.04699132785680771
C 3.037075373882564 0.26616380244956794 -1.4171842930569605
N 2.1324051394484163 0.3133690248419389 -2.5615984628369404
C 2.7115304680607117 1.5672489563397491 -2.0497091947706827
C 3.6325555811392185 2.272047031657905 -2.8871686464126514
C 4.420499990325807 2.875071445310016 -3.567307474888693
H 3.1668677449640388 0.03649233580480412 1.8799350366598013
H 3.620489185609808 1.316972537628956 0.9750817362175376
H 1.5160176941686467 0.44217399709801286 0.05776802098416854
H 2.333942018218465 -1.1232770881699654 0.018468770314466434
H 4.001130473255205 -0.1616020955670064 -1.6414477070248272
H 1.1740904709190008 0.2453148913122116 -2.2511883607593095
H 2.0466635376840303 2.219788171035631 -1.4751995897318158
H 5.113064988411165 3.409048272992328 -4.182898923576263