19

N 2.5613470910192118 0.3653103197377375 1.5028204994298229
C 2.440662228963063 0.048385802944376374 0.09298465339907488
C 2.997696743277258 1.1277915503937308 -0.826648451648415
N 2.84665592357178 0.7886781995941864 -2.230092964889676
C 2.5162778704124764 2.588822678883902 -0.6033088623994629
C 3.96326937738061 3.0617813580290845 -0.8352023841632795
C 4.43117956278826 1.6117898333221412 -0.5684409419597682
H 2.4293428369360184 -0.4596737474819771 2.078780219352307
H 1.84554029454704 1.0275491731759332 1.7899699973543577
H 1.4080854961688425 -0.17456155884252028 -0.2205948503769954
H 3.029362921230032 -0.8681800735138225 -0.08767891480843579
H 1.862225073068393 0.6209392482645744 -2.445977935483165
H 3.3459139357699335 -0.0584924764764457 -2.4406972989526143
H 2.2101712176231674 2.7634623628039066 0.42487109152409885
H 1.7393353052467442 2.951461618958519 -1.2825946209516201
H 4.3513422214721675 3.842493089551964 -0.18159614299917395
H 4.128261056265178 3.350624930059006 -1.881290449897319
H 4.705531603147582 1.469586506997458 0.4832413179405808
H 5.203886772934782 1.2018797605496587 -1.2146837424267631