12

N 1.1663161444075323 0.1851402338748777 0.1665764104089828
C 2.3081526080957344 0.09797346076506441 0.06809451561276443
C 3.737543631454949 0.03528015074335912 -0.04838750514245593
N 4.387265731545471 -1.0590408568380858 -0.013524528166719382
C 5.7930946586024925 -0.6838519244944402 -0.17564292157394
C 5.844883451854614 0.8668936560276624 -0.3093051460683127
N 4.430081736716379 1.1909644813730342 -0.21801401759800618
H 6.204590187856228 -1.1790540258059838 -1.0521080390194408
H 6.3655733552582925 -1.0372475931684844 0.6873375986337066
H 6.264887210317362 1.1879496331621584 -1.2690577113819528
H 6.423810749404942 1.3410355304559751 0.49138235989031565
H 4.03515417768487 2.1124165335019724 -0.2574175896336142