19

N 1.035083895484002 -0.7345566209796917 0.4987738603064996
C 2.4652071739855255 -0.47955253479149407 0.36702254500001685
C 3.0760109655335404 -1.3798076576986706 -0.6840601918872976
C 4.5459423651484325 -1.1382297700815924 -0.8925000338079133
C 5.561031784397621 -1.7503139214551513 0.033593019428553236
C 5.462648980267617 -2.2247857722123805 -1.371896513510454
N 6.556245954140688 -2.01977864403982 -2.2675689303331112
H 0.619614042583121 -0.11261422066948065 1.1839982212142603
H 0.8750890071883851 -1.684467774116187 0.8194057478894958
H 3.022081638951847 -0.6026192707285409 1.3121025374935942
H 2.5921011523571074 0.5629854913148595 0.06443046718922772
H 2.533029332736129 -1.236051848290824 -1.6247826554034022
H 2.930728039814143 -2.427719002125674 -0.3937598018128736
H 4.805293182557124 -0.1390349706395389 -1.2535868035474036
H 5.197457560915896 -2.3971238149771144 0.8296786977511703
H 6.433605852609797 -1.1635335574781536 0.305498601386394
H 4.993092251157954 -3.199370051940911 -1.5018155467846193
H 7.14398880909033 -1.257889800216741 -1.9460852711368024
H 6.22865729663209 -1.7803206109540917 -3.194437796146953