19

N 1.1696447277924542 1.2789678880466828 -0.5608170495719864
C 2.5979480375779906 1.5418219734983185 -0.5911694347773534
C 3.297128975855243 0.8449556306807052 0.5590928976375739
C 4.793023968918399 1.0353895777526887 0.5726356084524299
N 5.554856627688448 0.525281530987856 -0.5354236541671633
C 5.346299621984638 2.2875678054335666 1.18747644951927
C 5.498730535411398 0.9662726616202174 1.8978981450032824
H 0.69773622920428 1.7115047309511584 -1.3402363315554873
H 0.757414885862321 1.6627441619800412 0.2760599943816886
H 2.85884933602255 2.6162736297645806 -0.5692278159830907
H 2.9813751611084665 1.145176944765495 -1.5442166734380196
H 3.0630378305193062 -0.22772402620332252 0.5226505805799135
H 2.8765946058217873 1.2205462380996897 1.5007047641668505
H 5.3006530214692 0.9781003021458309 -1.3989472101668008
H 5.390989305311164 -0.4699365704748302 -0.6521691082608301
H 4.642982432010812 3.0070162796039526 1.600057392471933
H 6.235115887594924 2.7133280627006413 0.7359906506002739
H 4.900299906396265 0.7950460246583841 2.7797577536926465
H 6.479724115110344 0.5170854066768754 1.9039756717769556