14

N 1.0355265643590947 -1.4478659785746457 0.6225412622134975
C 2.1719339345921886 -1.5990212621768074 0.48928660282049163
C 3.57104691150956 -1.815488329802163 0.337682394579209
C 4.401189939831706 -0.847914083451695 -0.046331351986703545
C 5.843824600324385 -0.9814359156680745 -0.27603813370514835
C 6.544106615436526 -2.306926422602555 -0.26566519816958944
C 6.332478991178561 -1.605410294779098 -1.5754877320860567
H 3.919264620149639 -2.81560806419189 0.5533573249890986
H 3.9868970518178912 0.1456462951468226 -0.22758866521847548
H 6.418792251739124 -0.1275765906023325 0.04879264226562763
H 5.9709386950385985 -3.194553647637653 -0.07293224960523992
H 7.548483505278408 -2.327753014220675 0.14460416060237358
H 5.5853459606425515 -2.0064949560045937 -2.2411655059242235
H 7.1871148978217985 -1.1456332560427434 -2.0602376010471533