12

N 1.025279179748572 0.07748560456298362 -0.02712974353338295
C 2.1756767996352053 0.07756222482852443 -0.03288432568256829
C 3.5479596953697805 0.07026986594712721 -0.03627157961405216
C 4.755858350685215 0.0781921387997046 -0.04530241464677698
C 6.179505165148957 0.07623709979331496 -0.05983494792941815
C 6.907627449932232 -0.6587222810986165 -1.158057172867266
C 6.914940229190433 0.8213805518316147 -1.1436436657048867
H 6.632429698156586 0.0635490337264449 0.9240535579680272
H 6.299517276266144 -1.1615920188442117 -1.9042757822416507
H 7.807156864966217 -1.1813874769830304 -0.8700594076165471
H 6.3131730218301945 1.3419261409316028 -1.8705179582366656
H 7.813146350230214 1.3426556149053357 -0.8448173070945085