19

N 1.3977693859809972 -2.2693327847972036 -0.9317020204574683
C 2.722233378659059 -1.8699409092401156 -1.3744403435059327
C 2.85312702338069 -0.35165387303009593 -1.3418706202655255
C 4.248372654104212 0.16899910306799884 -1.6989775077866083
C 4.679856874970253 -0.12438923490930355 -3.1088273221849088
C 6.106762344099623 -0.12792102727077584 -3.4679687754754025
N 5.349926000565012 -1.3733184552373126 -3.4570704551601907
H 1.3156104515687068 -3.271702251240576 -0.923323790609444
H 0.7001195222750441 -1.9150952656009141 -1.5770720536933982
H 2.9920544707972 -2.2411493824214976 -2.376897173080878
H 3.449840171556897 -2.2929331886761957 -0.6709167536472642
H 2.5694764483313572 0.0016386817879006036 -0.34861012516555556
H 2.1287580219587134 0.0850760573295939 -2.0403537049995575
H 4.985399720681761 -0.25092745600655336 -1.0044098417805731
H 4.2639865263502355 1.2584581498324983 -1.5489134608617625
H 3.9808719579199336 0.204414980319813 -3.8743636246563544
H 6.825999015018999 0.05399403934136307 -2.6613976709150657
H 6.432202856985144 0.20613718675009796 -4.449183712792696
H 5.557976497880094 -1.8957056864870958 -2.6087248778553276