13

N 0.9109026138158683 -0.08466405939309907 -0.7026794324255005
C 2.058620054178122 -0.09165176688866672 -0.7205946184042383
C 3.4810290728554425 -0.1262021816879528 -0.7514020070151054
C 4.232205832148681 0.9425962081350121 -0.46737313731853247
C 5.708705673026112 0.9827008825954456 -0.5319066136790976
C 6.490583327742639 0.016733833371461452 -1.3169348925283306
N 6.366560490975162 1.3953729450764425 -1.7744082486840387
H 3.922756297484612 -1.0796276797196147 -1.013954697950338
H 3.7325703236356733 1.8664262034005412 -0.18550079218338028
H 6.167997702387258 1.4289651376650745 0.3517064295466825
H 5.9647626013452255 -0.7527901039371157 -1.8612880615058147
H 7.484763877446343 -0.2626452662647012 -0.9719468877281713
H 5.672211397505313 1.4441063768727556 -2.520054175807797