11

N 1.0237107214371324 0.10461724313510377 0.01153784978653116
C 2.171639961168027 0.07292866802664946 0.02646532818338539
C 3.542369298882638 0.02777905356327708 0.04750839508664916
C 4.743043324365574 -0.010534570246423056 0.05302789544409908
C 6.1689902248303685 -0.04011290993141507 0.06891169054844144
C 6.895208176605425 -0.7309271218853521 -1.0343151696214794
N 6.923102871911873 0.7122832295579703 -0.9450829193597278
H 6.62335606808705 -0.025084091819690763 1.0609436907717473
H 6.2951995202689615 -1.2043728746166389 -1.8037777006934168
H 7.829844956312039 -1.2313013237939796 -0.802544643673721
H 6.283786955780925 1.1342973025287622 -1.6116573340847733