15

N 0.9166904811499663 0.00031697902648729023 -0.05754496262379769
C 2.3770898182908367 0.06903823285521359 -0.06481987859726795
C 2.890916823412902 0.6513592273763915 1.1705757691369527
C 3.3179003831382663 1.1506675076912785 2.1753932062449444
C 3.7919495407629356 1.7439038692106927 3.3889662693369127
C 5.156851057931033 2.3289085875707403 3.4321823453309075
N 3.991160690547492 3.1923416824601225 3.461915902862125
H 0.5880787028863725 -0.3458781326939638 -0.9589623031740241
H 0.5315679376093412 0.9258794276509708 0.08125335490150598
H 2.795766985194721 0.6402048524600035 -0.9121284836112244
H 2.762139584574343 -0.9546147301460906 -0.16174494459008867
H 3.393010381593781 1.3133451137181114 4.305482765827197
H 5.744306132916799 2.267915629349936 2.5213738312903056
H 5.7207169573117715 2.2735591680306544 4.358848404850362
H 3.836911582741122 3.59790597221176 2.549337243952619