14

N 1.0513989916328903 -0.04409502291085329 0.10425647822117562
C 2.4953027692189065 -0.10602717883303155 -0.005880097049463397
C 2.993970740440514 -0.9422954408792373 -1.2142156609067258
C 4.432513123828877 -1.1549541809426425 -1.2170702313940438
C 5.616685711608499 -1.3368320289787963 -1.2027500539731446
C 3.041219561478369 1.2546694747573768 -0.07752314091983356
C 3.470215505601749 2.3702821460252728 -0.16124706822392518
H 0.6609409339098717 -0.9796305246603323 0.10119774354815125
H 0.6503425319384513 0.45998895522611627 -0.682345005100554
H 2.877235728286812 -0.5773058664185349 0.8978401867672201
H 2.6836021317096805 -0.44867563731764243 -2.1367310797588708
H 2.491933993834894 -1.9131103121349875 -1.1717990733410923
H 6.67836237495026 -1.4785946392752423 -1.1827953488848886
H 3.869104572629565 3.351400386466814 -0.22732186502417243