18

N 0.5786679791661361 0.03486449803538744 0.08257116225493763
C 2.0209053875497736 0.12710923850837916 -0.045490736516892685
C 2.5532324796058403 1.5113362718488657 0.16332438916557684
C 1.8054545864133649 2.511978183097103 0.5861601257666492
C 4.018229728420064 1.6872533832739867 -0.16455574115912347
C 4.288606798903288 1.6722098805887926 -1.6367450905364493
C 5.091238685580208 0.8153949392393289 -2.262966309291198
H 0.2846982205529636 -0.9350237646373132 0.022034669747819834
H 0.13381262598013538 0.524366153707084 -0.6784714131068185
H 2.4073649556418744 -0.24198928060537192 -1.0068083146152969
H 2.4695955291467406 -0.5311390284533549 0.7144999386328232
H 0.7555655696144354 2.370694841547747 0.8256104282732026
H 2.2181935915993254 3.506179897182741 0.7395605137267307
H 4.603293314102217 0.9064098704335897 0.31786003956338554
H 4.346289850155658 2.6451740078812 0.24455601152254786
H 3.776348631812188 2.4345987318516795 -2.2245621467552676
H 5.624270438744249 0.043551927993828586 -1.7101461554111441
H 5.253205639761011 0.8639402132733632 -3.332457098173387