16

N 3.140139070489972 -0.014032135033685451 1.1050966941898017
C 2.4726989202608247 -0.0550809292944928 -0.1926024164709416
C 2.7924356899192144 1.1633720748138134 -0.997242839820838
C 1.859533920021837 2.022913160904646 -1.3864083502887607
C 4.255074547593881 1.386607705987991 -1.3076013072860728
C 4.79947814862825 0.3609829942266971 -2.1910170544767675
C 5.234468124170276 -0.48151583568217043 -2.9220490829021273
H 3.106904903896285 -0.9087299872954163 1.5623830169260944
H 2.6908448955887057 0.6590499544366459 1.713939973285814
H 1.3791498514831626 -0.17330571415028226 -0.13077703225779574
H 2.860821809190344 -0.9333152110661125 -0.7251208679520859
H 0.8189989288463695 1.8552507902939637 -1.1391116117727291
H 2.098625079188563 2.8996766401610112 -1.9685623992092622
H 4.814684501937498 1.3634416263939952 -0.3664134591558663
H 4.393354812801543 2.370448499842484 -1.7613980563546585
H 5.634652790965598 -1.2235217150574391 -3.569155839016979