18

N 2.995877096601633 1.2977432301140426 -0.3690534460916889
C 2.5744842705711184 -0.08957135021377557 -0.3825120769149215
C 3.2554386139505653 -0.8609132129242746 0.7524199681956344
C 2.6838258897075 -2.2533429035512413 0.852404076828045
C 2.0308770977270765 -2.732233283966936 1.8938887873480297
C 4.738957571936932 -0.920232928677418 0.5322921676468587
C 5.639289335628026 -0.28196154552913844 1.2550304144530167
H 2.5668187993254508 1.8178618052712332 -1.1183945135349618
H 3.999595469067689 1.3616442976430645 -0.4896806059772064
H 2.772755439140775 -0.6126203701368431 -1.3332140489696729
H 1.4888817581572258 -0.12286228279283365 -0.21616829311698976
H 3.0501762116362356 -0.3265242086077569 1.6874704595388743
H 2.837987457269132 -2.888348037513455 -0.019932925090514034
H 1.8759445984589878 -2.138512273864801 2.792778573037741
H 1.6381680013877542 -3.7402649250180335 1.9018735736799923
H 5.062691086488769 -1.529141326232349 -0.31154685037839186
H 5.353616848661132 0.3327888649900177 2.10650828930544
H 6.704666059959494 -0.35364331484626266 1.0371743095998673