14

N 2.7556643823817413 0.7835437310765672 1.1535399749948794
C 2.3754077215621803 0.08248739290932249 -0.05647259231447979
C 2.937513265858531 -1.3551944181074929 -0.02279509889641815
C 2.4318341683542397 -2.1399140785027218 -1.1552102010710197
C 1.9970212110706407 -2.7559233644353114 -2.0782550371483923
C 4.392952716986924 -1.3481432314156123 0.028058499364935183
C 5.596020255459051 -1.3074281885581431 0.07070957638086918
H 2.320941886192592 1.687959545667756 1.191932331963526
H 3.7623561879656044 0.9213427551871974 1.1723267206970591
H 2.7127472770037238 0.553616869683711 -0.9898489652474222
H 1.2873140076026126 0.010931008612251273 -0.09361662502939672
H 2.567831847400315 -1.8112380049619716 0.9112337216149592
H 1.6193002329277872 -3.310833651955192 -2.903380931132222
H 6.659439043064102 -1.2790619039977214 0.11860355233104505