14

N 1.0515727415963516 0.11249541736670185 -0.2227184119368688
C 2.4812602867037987 -0.04326154641569156 0.051748208028344955
C 3.0070726695088132 -1.2618239402628806 -0.5301661915251782
C 3.447854623754359 -2.283788940223538 -0.9867921984300041
C 3.975849637456145 -3.518309240132263 -1.5555444217742898
C 5.259128499596562 -3.3537096411783778 -2.2376417686487526
C 6.307072859591905 -3.228837517625233 -2.8055255949136813
H 0.697935819188902 0.942759041214945 0.23708173587499673
H 0.5484903194188957 -0.6833428217754951 0.15710681614482508
H 2.7300522315944096 -0.03225126019880019 1.1190923842399532
H 3.0023649837529978 0.812484050114938 -0.3962974887981951
H 3.2471257038578014 -3.931368865561942 -2.26230922346431
H 4.085030349495829 -4.268162591988304 -0.7716689569007117
H 7.2334800419425616 -3.1125589729203536 -3.3039875190337287