16

N 0.9848819221281057 -0.24868648359598441 -0.022898493498955563
C 2.417413617978863 0.0012414745661981454 0.0504961766280234
C 3.163916764713332 -1.021723665134535 -0.7980751089925467
C 4.660023263833143 -0.8435340774054979 -0.7647927522045442
C 5.364493554535115 -0.48629021373738 -1.832693203500138
C 5.302568519606175 -1.0807274390743065 0.4920509643719032
C 5.814476384271019 -1.2999796725412003 1.5610419485104605
H 0.47790509215826915 0.4767186888087248 0.4643050715558124
H 0.7564052912194725 -1.1254032659745512 0.4319830842122716
H 2.8319989322805124 -0.01927484569705701 1.068856442225761
H 2.608863558412658 0.9942902171472855 -0.35128051471505006
H 2.8128420800590628 -0.9621533513106514 -1.8308301705733896
H 2.920719461040016 -2.0353934538424623 -0.42591606492843603
H 4.878319376567556 -0.3104144991211294 -2.786401853504226
H 6.439197497130278 -0.3606085008719812 -1.7799267987649532
H 6.279417061636541 -1.4911891158373076 2.5043010715335283