14

N 1.0584411520162385 -0.022204536753030746 -0.010833434141600668
C 2.51036087637222 -0.013753532483341853 -0.072316319523175
C 3.077377201146305 0.4979927450209027 1.250242192106723
C 4.525996574236219 0.5020566540322867 1.2831424099504292
C 5.728663110336272 0.5010333881424964 1.280101882161937
C 7.094217733571874 0.5074173135312533 1.2899044242797595
C 8.296019283502154 0.49812724276255577 1.2960312679911494
H 0.6637451543449413 -0.4965361801501004 -0.8134909162625616
H 0.687835633808526 0.9286980366628035 -0.017671843312122893
H 2.9203977752039036 0.5918924301609495 -0.8946232049298529
H 2.8489902709801918 -1.0425625271659387 -0.22823639173954227
H 2.6900398225370146 -0.12889987846435969 2.0632221334577614
H 2.7045411893782494 1.5140893006402993 1.442566546208283
H 9.366241368558743 0.49944678063334025 1.3031212693438716