20

N 0.9669496541915126 0.14735636730551416 0.18952213538409915
C 2.412036482494734 -0.0012821617866538323 0.2472617410343517
C 2.822117287749269 -1.4114879840128471 -0.12555248514834258
C 4.320134659543716 -1.623900850379568 -0.13735311663658592
C 4.727090098610937 -3.0449553545418544 -0.49725656176832284
C 6.209660175204017 -3.2327715060826554 -0.5651873740504687
C 6.91712127409108 -4.068667884245949 0.17905939779541516
H 0.6947372614860233 1.0952970969397344 0.40830277564002965
H 0.5240496713925561 -0.4501013087414811 0.8868515189565417
H 2.850351945945493 0.24920240366748722 1.2286151913562595
H 2.8404518652522714 0.6975385808579271 -0.4762615810961054
H 2.400024572427517 -1.6529146486544504 -1.1133463528778242
H 2.3625381679195097 -2.1238788943221474 0.5745310786306138
H 4.736270461643458 -1.3688194579955977 0.850338880913205
H 4.785587549365757 -0.9229985562517214 -0.8411259671234245
H 4.29473746539589 -3.291832401024233 -1.4716831135568493
H 4.3048492443834085 -3.751457723771517 0.21792698811164674
H 6.73536455663289 -2.598193364304982 -1.2807789197845088
H 6.431476534686766 -4.715954180231553 0.9069985630428409
H 7.9909325942620955 -4.154287265263091 0.09084777133799744