21

N 0.9664416571264246 0.04436609413312119 -0.07378449263948211
C 2.4240483929212386 0.039323110852967184 -0.04610231168550018
C 2.972360214192545 -0.9601349551221267 -1.044150621512425
C 4.489208214605991 -0.9815051584539198 -1.0960228180974032
C 5.043222126359978 -1.9836624022504044 -2.093923288792543
C 6.560926499029542 -2.008944824612892 -2.1292658764827284
N 7.035634726696847 -2.9595789617685293 -3.1319221374909465
H 0.5969857186423305 0.7308222602857938 0.5785212379114271
H 0.6034027052036844 -0.8609485670766225 0.21584526301886825
H 2.8480690311018044 -0.17923071494345064 0.9419807282046664
H 2.7679910940938224 1.0431258204567562 -0.31710655348764477
H 2.5649225407643756 -0.7231536030998537 -2.0347280374866497
H 2.601057845644114 -1.9566943315330416 -0.8012160899485204
H 4.889636965281417 -1.2078887374017506 -0.0953482633747136
H 4.864129119310007 0.016123308767410263 -1.3472160138577867
H 4.671368489282596 -1.7696987766738148 -3.0952242190468513
H 4.67552927589829 -2.9850346451587684 -1.8408885466208789
H 6.93835236156691 -2.2102788287349973 -1.1204546944785956
H 6.9320827183857645 -1.0182338043245185 -2.414745221768162
H 6.754441648241681 -3.8966808334888174 -2.876493858102556
H 8.049841236720614 -2.957965150976326 -3.1727920649061905