11

N 2.544723199470701 -2.6660462423750473 0.2076100252110816
C 3.0324078061123103 -1.6309532306686938 0.11244196855747095
C 3.649717073084025 -0.321660974089 -0.006522445152273341
C 4.171911044431836 0.18151345555145318 1.2993376376255528
C 5.430080606628195 0.5857353067312313 1.4636002380613164
C 5.915050093667029 1.0857260560626245 2.7014457780230847
N 6.332799729784726 1.5074170255716879 3.695685618360853
H 2.8860155235641867 0.3703932483116238 -0.3910263268717339
H 4.43983492904741 -0.3651990354498459 -0.7657984998705856
H 3.4756539257946018 0.2068613816723964 2.134191817909607
H 6.146151814749723 0.5579982596677536 0.649869050284749