13

N 1.0204354707379317 0.018259371070477093 -0.4206381289428447
C 2.3484475680525287 -0.1002899689972537 -0.24764712975936035
C 2.997904790393647 -0.7388975212829931 0.7727299610748058
C 2.3247660251135382 -1.425461054468678 1.8603312899441935
C 2.9285806970073436 -2.0579287596043705 2.869160327205659
C 4.410718626526541 -0.7273157123424948 0.7462593594262429
N 5.567113437843226 -0.7297182288979084 0.7464198221349017
H 0.6550860751680077 0.5107654143360362 -1.206700836053682
H 0.3652041286382168 -0.3918468676041444 0.2148406596602674
H 2.94808527793398 0.3819672563868691 -1.006296525269638
H 1.2436033496712 -1.4192577849192565 1.8486208434040878
H 4.009525645200879 -2.1049334471078183 2.936908806422112
H 2.3613370123782875 -2.555093567056211 3.638242303559584