11

N 1.0618599080283675 0.1440961257740841 -0.06496548523501877
C 2.396082568982328 0.0872876688694789 -0.023076224725480418
C 3.1098994768776054 -0.8116184679540092 0.7127734456776259
C 2.4384172378483 -1.7907054333539927 1.4961858014094669
C 1.820278339778317 -2.5861293739389826 2.14194896849015
C 4.523593235745086 -0.7769859417068673 0.6769538330558963
N 5.678935187155223 -0.7332860338660179 0.6435005097175902
H 0.5836534277387493 0.8257042925434926 -0.6195905271302051
H 0.5080060199378413 -0.5164168417338372 0.463393323450474
H 2.9276842579964737 0.8252514925460982 -0.612176930315827
H 1.3011335025958026 -3.3133276362759028 2.732922240251087