15

N 1.0551767292769394 -0.38940769956268123 -0.21284251109161623
C 2.1981940177860313 -0.3577713265188613 -0.1553460979909282
C 3.6454796031374723 -0.3124630294248348 -0.05627828597956394
C 4.117682041162574 0.13225521874013635 1.326057407060202
N 5.561700438950012 0.18396680161309528 1.3522764030935808
C 6.1683736516708505 0.12696731468238523 2.6548675983443566
C 6.22714052404902 -1.04027048337875 1.7554602269739716
H 4.034321528608875 0.37945663820628717 -0.8139654487219046
H 4.044550500743564 -1.2995867029618577 -0.29215140223219993
H 3.7064409013668116 -0.5475774539545385 2.086739397483758
H 3.7307777790342413 1.1359077494640244 1.542955477496775
H 5.514660077954246 0.055969041973870974 3.524462360396584
H 7.046854252196998 0.7541126156983669 2.7978516278544703
H 5.608425390030464 -1.8895160062086305 2.0080832952898398
H 7.141532367592511 -1.272882555654692 1.2142329703048034