13

N 0.9338037426698915 0.6630694473108774 -0.3676446819639158
C 1.965990393214983 1.0820082642846518 -0.08914610799421001
C 3.236098658019075 1.6180907173438914 0.2588831867103382
C 4.357786448852399 0.9108561812548999 0.15736076469973231
N 5.5944783332840675 1.4549579484330586 0.508028636760878
C 6.542526276712415 0.4965580293286237 1.0871718575052793
C 6.721919410794066 0.9647687053820849 -0.29527085839887207
H 3.2630476846608745 2.6492426120241928 0.6062969142605841
H 4.320104315697779 -0.12363456241025207 -0.19539069651649313
H 6.20526678661393 -0.5196733144419883 1.2328879249713698
H 7.1540225770089485 0.905667251294502 1.8881587191816436
H 6.501881104245241 0.2709086916277527 -1.102770064655373
H 7.463575794752565 1.7260151634843393 -0.5247092095575321