19

N 2.9404334927532396 -0.3469273657200413 -1.3727618150423377
C 2.506357374589656 -0.06621525083413501 -0.014625278014344984
C 3.020496516273297 1.3044050692161884 0.43682720089719823
C 2.383312062507905 1.7303394002058687 1.7624387607950858
N 0.9354783781568533 1.8640751800423916 1.6328287496083813
C 4.510176610695875 1.2828385638462199 0.5727638922041303
C 5.362857067862483 1.942893503819119 -0.2119074022770863
H 2.575080763921835 -1.237388439778668 -1.6760234127646894
H 3.9496424988738763 -0.3994836562317338 -1.4132006597042939
H 2.8307653101516768 -0.8192652400269189 0.7277395560805933
H 1.4113861588540615 -0.0436127238555214 0.021136306833709536
H 2.754474372296789 2.029950566683292 -0.34162719424019045
H 2.879276349516369 2.6491136687889854 2.1002515059465607
H 2.5793022558128653 0.9633018647367527 2.511506637805163
H 0.7103223748252828 2.6463501926635615 1.0246994189277985
H 0.5154880520804292 2.0455670561871573 2.5270173875090807
H 4.9118250922204165 0.6597749927588216 1.3711988526967351
H 5.014075872671924 2.5744135936663493 -1.0176066817639418
H 6.435672853767246 1.866717383461658 -0.06065087739272098