19

N 0.7316349378866247 -0.7519739839257388 2.187956524794424
C 2.175183026580786 -0.8703135199653318 2.270744033932297
C 2.851701011642687 0.22253265483345705 1.463015989344144
C 4.382733726108314 0.17622165334129108 1.4709582244474306
N 4.995394780684056 1.141547503957403 0.5601198858988267
C 4.91887109299495 0.40930194256700514 2.844533080792701
C 5.582110309576821 -0.47144687517880846 3.5740042720967686
H 0.2816774637008447 -1.4518092066033028 2.765208609503272
H 0.42105103800907023 -0.9206786112465988 1.2382741161394288
H 2.561952556863408 -1.8471577092025397 1.938830549894307
H 2.462912381201533 -0.7738500502459636 3.317302591000023
H 2.5073712433051107 1.193312668062585 1.8289405736699718
H 2.5103939529067394 0.15393373640212918 0.41313149814418965
H 4.698355495983637 -0.823707497655276 1.1509256449164078
H 4.779513325544252 2.0832685633330756 0.8602217477764605
H 4.5984355705783075 1.0422082902551046 -0.3701228866016993
H 4.72774768919283 1.4029163407875023 3.26120797133619
H 5.799288646936747 -1.4693013182455041 3.1894281635279453
H 5.933978821565638 -0.24633046602650258 4.5753938134610035