17

N 0.9875278560778198 -0.07274194021646062 0.05284762684043735
C 2.4362358128037798 0.07498390095358919 0.14589847837049527
C 3.102003147578263 -0.48721694296996454 -1.1006959177227014
C 4.641582095156207 -0.39766260584925006 -1.07272285474336
N 5.293326151240267 -1.044577101368704 -2.205956013317714
C 5.076208756899666 0.9942534980796296 -0.9955235822611069
C 5.421263858056914 2.144166383707004 -0.9391267700001611
H 0.5319308858554496 0.37383091618719866 0.8265148968194929
H 0.728252419259913 -1.0501963168177826 0.08542294365383711
H 2.86902730734887 -0.4030187915064113 1.0339624657116582
H 2.6564949054322535 1.1411373007775913 0.20970904946439817
H 2.723791805074234 0.03406768173370574 -1.9802455835052755
H 2.844522998009271 -1.5506022969844366 -1.202406617875517
H 4.997234952154202 -0.9037611552635572 -0.17591770294844394
H 5.053725475120127 -0.5601574697661412 -3.0703211735112426
H 4.95624176378824 -1.992212437062945 -2.296508044626902
H 5.730619576515271 3.15664756520065 -0.891346950569073