19

N 2.1237032165823417 -0.5544732956536094 4.2335157391705875
C 2.7445107219096108 -0.10790521077638109 3.0018491470019955
C 4.129263298419007 0.4400458467009926 3.2844242848401803
N 4.779799978366014 0.8859304866312839 2.0739223740808113
C 6.121326817473194 1.4539377222989571 2.1863237248100975
C 6.485243263966586 0.7758065861594605 0.8577733549896313
C 5.277897618546223 -0.12378582792416792 1.1342102134190186
H 1.2387300695572865 -1.0097494046137807 4.044390811596389
H 1.9206312187684487 0.23413122018667376 4.839961256146785
H 2.165965424011944 0.6629017632155455 2.452624251136062
H 2.8292698388715047 -0.9746419138332509 2.3347368433414832
H 4.710773805391314 -0.32973167807674586 3.813050892460061
H 4.042560202100741 1.3076822803937813 3.960369628225907
H 6.692944894146426 1.027109352919095 3.0359459300590617
H 6.168774564255153 2.552863749818543 2.2526597314538073
H 7.46283954383923 0.2978814970499698 0.7918960390574598
H 6.3355708034004445 1.4327826765658411 0.007663401023176742
H 5.562296881726079 -1.0624437432062637 1.6364333053801876
H 4.608737475731816 -0.3537571247920307 0.30092660014499173