15

N 3.439587815299856 -2.60923172891843 0.23079670438842098
C 3.4796359292140475 -1.4635406129713984 0.12546357881635425
C 3.557056713902048 -0.009198412170543364 0.007764950712076077
N 4.116468262998662 0.3880903654438631 -1.2547461343877648
C 4.303622542770648 1.8291401800765266 -1.484452381071931
C 5.592790889860101 1.4999179100725466 -2.2380661667793045
C 5.542486018921108 0.15560764631778287 -1.4998124942171924
H 4.124480510706069 0.3659563106332712 0.8724762138871806
H 2.5413880644806888 0.38807943048752214 0.09454281322491914
H 4.49778896976038 2.3859840235419316 -0.5610844352392134
H 3.484262531844833 2.309556597004353 -2.0317075078061637
H 6.458837364438441 2.141565472828526 -2.0496503887746833
H 5.436341137784007 1.3903889949388988 -3.3106487040418884
H 6.139636067419081 0.17305332640881194 -0.5797508628822735
H 5.77018717197163 -0.7568379827446259 -2.056664818254334