19

N 2.529917346986787 -0.09054882610325059 0.2723599947817159
C 1.9890363633761552 1.2106254336931623 -0.0853443906275313
C 3.0441805137924938 2.29907944101512 0.04027497788127771
N 3.5993091552788554 2.322187838729246 1.3787621860218542
C 4.470124895741668 3.4279553245874217 1.6275133984910906
C 3.85263661403794 4.687074704770165 2.153948286875309
C 4.694204406644669 3.8274859820043474 3.051527913296452
H 1.9695193410624334 -0.834437968138355 -0.11069602599374698
H 2.510549771054076 -0.20488239187885163 1.2875080444013836
H 1.1199260174947685 1.505000403052927 0.5114608310761064
H 1.6719121311112302 1.1712641345364876 -1.1285450715502652
H 2.5938633312773556 3.2650496512830443 -0.1522909947469618
H 3.822359884327205 2.135497779156635 -0.7315594676255821
H 4.117504001700571 1.4522455859979813 1.5295518864413309
H 5.314705111840603 3.558375180885365 0.9466391593149628
H 2.7770479269379704 4.660556789839046 2.3097523006706013
H 4.243807938122696 5.634569954978776 1.8097901821019768
H 4.172719182157187 3.2536758750502557 3.8062774954673637
H 5.669929316075986 4.193393115814688 3.33852109476171