19

N 2.460566254806376 0.3432832873902581 -1.2322205488289635
C 2.1877125742363632 0.16168177833444555 0.1847118692765547
C 2.7998346285962206 1.2872075342589793 0.9975922569242549
N 4.216604451915821 1.3887902861499266 0.7509686781202182
C 4.891347859315556 2.350435529235009 1.6124915516133336
C 6.347391598264758 2.405164958916176 1.3199605932406404
C 7.010758489607575 3.510086844476888 1.0111387758164907
H 1.8013358558690398 -0.1909016463669448 -1.7926350416011603
H 3.3746046942990646 -0.014013661064708274 -1.4602229360679941
H 2.5582812734414864 -0.8008760488871917 0.572602637569122
H 1.1047595106064658 0.1816098148884415 0.3314450824667055
H 2.6480496642207223 1.0785945305985687 2.067531667310846
H 2.2613383641054314 2.2283168685054733 0.7747498327077976
H 4.364350033875789 1.6790636121956064 -0.20668857216304223
H 4.742544781766962 2.006581104917003 2.6459827201116917
H 4.4553227269696425 3.36058227588515 1.5547688339486536
H 6.872445218589041 1.4466798390822455 1.3546608822033022
H 6.507533942603412 4.4774574394186235 0.9596688478879218
H 8.08048770756335 3.496310437340806 0.8176386519922766