17

N 2.787018607688003 -0.8192989569713227 1.313455833407615
C 2.352597594046346 0.019501578634324314 0.19838881620330837
C 2.8484870604126096 -0.5319383560017288 -1.1201685542782458
N 4.29058091978074 -0.6773261608450014 -1.1057710268217145
C 4.818277467790045 -1.0897277772226273 -2.388052540207044
C 6.2367666010706735 -1.3909742644289218 -2.3222329716949144
C 7.405302697104485 -1.6677065838572915 -2.2507999302279766
H 2.181664315178421 -0.7045630357478478 2.112365803465531
H 3.720539985188956 -0.557702890049384 1.601764862576133
H 2.680322704314193 1.0563199445348963 0.29683190846671353
H 1.257043821688568 0.027730432573112092 0.18113781847672553
H 2.573583749200619 0.1628625180920197 -1.918498052717852
H 2.3338231802456177 -1.4906436856558205 -1.325817595017016
H 4.5328164002982545 -1.3792854774776169 -0.4093909455602222
H 4.6640009850882596 -0.26973875360311156 -3.1036463618846706
H 4.293448939078285 -1.9632078189554965 -2.8082278168867574
H 8.441784504588234 -1.8969266418402255 -2.2002068468613767