12

N 1.7715940951069225 -1.2234010382954175 -0.9670400235186818
C 2.80246564320039 -0.754028213426618 -0.7931541576128079
C 4.121812122460022 -0.17266368882926658 -0.5871011885328917
N 4.447416217837135 -0.13650457315197714 0.8266440074280844
C 5.740507020941843 0.4433653603743301 1.0986175899770367
C 6.871714358540043 -0.23662654146522358 0.45453149863467235
N 7.720390681399409 -0.8000529371751504 -0.08353873404217024
H 4.103178344030062 0.8519240608226404 -0.9705231403768918
H 4.840301434493906 -0.7353448356194825 -1.204841407004078
H 4.3846531692590185 -1.064959161162535 1.221635685135436
H 5.903561787953977 0.4490436926476978 2.183677850914829
H 5.735833775479752 1.4896325764320588 0.7842764448919486