12

N 1.2531026043708733 0.25334974561325624 -0.3220292466854296
C 2.3735504888640935 0.06701686980106197 0.23958240597591685
N 3.3287970113501424 1.072025011912641 0.31362695911648053
C 3.8869116452446524 1.5647618234768905 1.5443099934125062
C 3.0254496430441535 2.439519417069415 0.6743085003715561
C 1.7316816056319724 2.817897812104795 1.1778034320827486
N 0.7295646148787888 3.185979115602286 1.604147007575625
H 0.7199321417630298 -0.6086186519757574 -0.3461375637422774
H 2.7383777173301698 -0.8797214104899811 0.658187882469301
H 4.961279832851726 1.7247427473911252 1.5528232056429863
H 3.439717233831852 1.2406191263873656 2.479422556237967
H 3.493255460303518 3.1914523226216054 0.049338162097475276