15

N 2.6031259361972747 1.2559119717439675 -0.08040918785021109
C 2.5369270353821998 -0.015453953507397757 -0.028637107077386835
N 2.9351761835550914 -0.7987340425876249 -1.0536983817531977
C 2.890349728746002 -2.240068707263843 -1.0635187929510026
C 3.4270407246683 -2.5717527460488765 -2.421246826456802
C 3.732915109538297 -1.46598844147465 -3.0871662600197767
C 3.4475052145526006 -0.2397217725333155 -2.2896831120202683
H 2.2571614712786094 1.6618765492091454 0.7873910963964333
H 2.1745354649672874 -0.5961736877330075 0.8279726523369741
H 1.866855028816447 -2.626280950942614 -0.9238580742165282
H 3.513581753425235 -2.678433820891791 -0.2614241352707122
H 3.5416514493787528 -3.5865111680200097 -2.7662028318479357
H 4.1433477902585985 -1.428109426029418 -4.08885303548473
H 2.709821706999405 0.42667911914605383 -2.7676857153281733
H 4.338339362296023 0.37887675969025336 -2.1083589229099404