17

N 2.609754629274959 1.4011210148790032 0.06136156010430493
C 2.2470750206118844 0.07335633690838658 0.012108287984678367
N 1.3945536982771125 -0.44057351094343467 -0.7733702442842387
C 2.984025679383433 -0.7803222811789082 0.9996673347922398
C 2.541867911492647 -0.7211818669587997 2.4880505644987783
C 2.7788155723464363 -2.2412223611848243 2.5656138093568894
C 2.722955151661308 -2.285399373620439 1.0243838356262667
H 1.9973244128007337 2.0703558211199504 -0.3779123236093434
H 3.083091426229711 1.7352235796449176 0.8792860788801811
H 0.9549808509418825 0.2628993962545084 -1.3631823666357297
H 4.060184632142455 -0.5713688097883661 0.9267078517783307
H 1.4735615918092808 -0.4795457106196733 2.5521568522872813
H 3.0963351795136367 -0.07031509451365354 3.1662682870323704
H 2.0607237058389876 -2.8347839141174935 3.119139547826483
H 3.783161842302134 -2.463318555354045 2.9361500464562456
H 1.7114443186960355 -2.489742482683846 0.6589771553035288
H 3.4265718766188913 -2.9335157247358303 0.4960019687784566