17

N 2.7574550963943776 0.9297500348611561 1.1195693930598456
C 2.4328120927713104 0.23057700878135665 -0.017618146637452065
N 1.501840284310977 0.5076154020234442 -0.8437091042497818
C 3.243955741782495 -1.020937401165238 -0.22631562522474094
C 4.737187491259813 -0.8387501804310559 -0.1114922093894736
C 5.43868899713468 -1.007361075563752 1.2042080735140752
C 5.610965449978623 -2.0275623935779783 0.12091215231206129
H 2.3903267362286806 1.8645654960484357 1.2099100608811675
H 3.6809320762541025 0.7901227043716558 1.497268233480604
H 1.0164678601627821 1.364954955002637 -0.5697805218359787
H 2.974498484144816 -1.4027089304807119 -1.220171954721589
H 2.916537666995771 -1.7676181821797396 0.5051015530679297
H 5.144759227246585 -0.07045790067173238 -0.7643010320499593
H 4.838049708135678 -1.3048087046748538 2.0662946882621913
H 6.274659376633953 -0.3669632572970261 1.4409390253566055
H 5.132784700764271 -2.990807490292136 0.24486725165154494
H 6.563933776392938 -2.069853986497146 -0.38620071335501366