13

N 0.9732620570705665 -0.09651558813026792 -0.05476801981886209
C 2.2336816015728966 -0.07204938299323706 -0.02485861903956202
N 2.975440153037928 -0.9139854015598055 -0.8057262477773203
C 4.34371559237535 -0.9593967766591214 -0.8357739440459805
C 5.079254257781412 -1.7797638386136874 -1.5968636840221917
C 6.4850804626571374 -1.7758905666922762 -1.593290519898707
C 7.694259921808475 -1.799647965936363 -1.605320063498953
H 0.5792263108212836 0.5915552632210911 0.5815599935801148
H 2.8501954160286664 0.5957509664210932 0.5847187910611371
H 2.45059400919602 -1.5545085759726311 -1.382309024033922
H 4.829222453054519 -0.24009133377314562 -0.18034469738608527
H 4.5783586310547975 -2.496242956035726 -2.2472507470455882
H 8.75096613144782 -1.8108901322274045 -1.6189176139787607