15

N 2.8857201945788966 1.948925749968042 -2.6095050934671646
C 2.2674358602222573 2.028940641297567 -1.4974840680412362
N 2.8766039393265626 1.7603363821491782 -0.30474774398560667
C 4.2925882375267985 1.5523125645117242 -0.2230371173274583
C 5.1072541649979275 2.8478279188645477 -0.29502333449627405
C 4.812841334409832 3.7547038332625173 0.8021011563120191
C 4.5458575687467 4.478475876684468 1.7252859312850506
H 2.247577663538086 2.1267099336498068 -3.3766015974591235
H 1.209403547293526 2.2717300846660504 -1.390866928618383
H 2.4034028164219836 2.0833719460806184 0.524733857690393
H 4.578451993840375 0.9110371344152784 -1.062742914695025
H 4.507774815618852 1.0243852769402144 0.7045653378196984
H 4.899368440720252 3.3404298814955524 -1.2528549706348735
H 6.174213649459206 2.601210570588802 -0.2886555642601421
H 4.317964299644913 5.122040295006102 2.5347584548809183