11

N 1.1088442882014613 -0.11497953413603476 -0.009680984235691314
C 2.4724588497881403 0.02187100839444196 -0.04115544247527855
N 3.1582891890247744 1.0646321679265 -0.31067384030654727
C 3.1746075525797703 -1.198224036584692 0.2705364084482023
C 3.7557823058898374 -2.2217905501986293 0.53258106119974
C 4.409301480012259 -3.379483161171442 0.828083459434941
C 4.987342062500402 -4.399192651001572 1.0893257389578905
H 0.5221035743423841 0.6733285590133603 -0.2105848928496292
H 0.6939963050333791 -0.9916167670368904 0.2172618112896095
H 2.5493235071193534 1.8584853404403372 -0.513097301658967
H 5.509779002939081 -5.31029251598855 1.3248431447126154