15

N 2.606470207137559 1.4884656107904684 -0.12548654174202437
C 2.626082983963345 0.22196658348708595 0.41865705576278384
N 2.124992880846401 -0.1459665276959466 1.526933623422783
C 3.283536516056548 -0.8197172031553647 -0.4519753235157402
C 4.812793793439261 -0.6956065615306681 -0.5285742049252575
C 5.286340370185301 0.43661588667142914 -1.3095293031249946
C 5.650232660157066 1.3688715967248237 -1.9694337316096218
H 2.3808088954617284 2.2465288959443415 0.5001040054690118
H 3.28761058638643 1.7028237555401171 -0.8313327823418373
H 1.7124722373282337 0.6431364545960192 2.0328259986957162
H 2.859153218062096 -0.7888698329620057 -1.4626134203212735
H 3.039917775011972 -1.7868493765678648 -0.009159981680618826
H 5.21060979983795 -1.6130756409554845 -0.9875113576257014
H 5.226026688408793 -0.643401171698384 0.48311173961838233
H 6.003334011581817 2.1884595336592656 -2.5529225923094163