12

N 0.9019143768634947 -0.15181906801507553 0.02660890102827189
C 2.161200677753431 -0.1679298212043247 -0.013537608553824902
N 2.8935380704822866 0.18579002669172354 1.0977320429056365
C 4.2531979504020905 0.20029030362912775 1.151788275908932
C 4.979881822936647 0.5376809908701025 2.234629588278313
C 6.385948661720379 0.5263639597648553 2.196656733562374
N 7.547580812407479 0.5258807098941358 2.1818643885525986
H 0.511188784062521 -0.43967383686084655 -0.8672383061598338
H 2.7829350650307534 -0.4436717701142007 -0.8622202525956478
H 2.3575568001254115 0.4402685934623952 1.914578241019418
H 4.75040484017844 -0.08919831461069658 0.2374789132691517
H 4.504844038181377 0.8400523809770308 3.1646677227460716