10

N 1.1050279611953058 0.007147885727909261 -0.037782381537929705
C 2.465030408109226 0.10963864380588698 -0.11133755588543703
N 3.168378269273915 0.9707647066304829 -0.7442377958381019
C 3.166693182310026 -0.901604394413159 0.633656061211896
C 3.7365633903317947 -1.755723661195879 1.259698285810827
C 4.395123841189343 -2.7191777723102453 1.9658086219617983
N 4.941039326004187 -3.5459300774104197 2.5733360225580064
H 0.5224588026411101 0.6591717638248721 -0.5266028483310499
H 0.671664435580312 -0.7197750589605648 0.49991385729945514
H 2.586236272755813 1.6385241416177547 -1.2397692325722625