13

N 1.0417448033169752 0.028841640720619406 0.16693997913088715
N 2.345826191944331 0.03643453896968703 0.10874542237793186
C 2.944937530987428 0.3292494306081842 -0.9952679697543377
C 4.402446529443027 0.3555145048164721 -1.0929051426534417
C 4.721000241796452 0.6957259963557657 -2.354921731240022
C 3.494922543820528 0.9019655107131754 -3.1144353870362194
C 2.4237719931831982 0.6887935223832764 -2.3114948145737984
H 0.6256306323369905 -0.21480635499210998 1.041135206465659
H 0.461187929931443 0.24369204275679346 -0.6319385962416892
H 5.058495304128719 0.1306232748834167 -0.2704721022677182
H 5.724540744184144 0.794107901991463 -2.7658563780542345
H 3.451701897174765 1.179198584454431 -4.16314432257213
H 1.3864290035920404 0.7651871721608801 -2.607155457159378