15

N 1.0063715649493696 -1.026526519681726 -1.3018644129420802
N 2.3479223012739285 -1.1490320269492371 -1.2771665666859175
C 2.9940815641551075 -0.5237722198643503 -0.37936306770654266
C 4.454254348281489 -0.5452625040246506 -0.32707141278009283
C 5.08967194414972 0.13042975729876913 0.6346512455339154
C 5.154691503481358 -1.3025617530504123 -1.3783921899046192
C 6.316180001152743 -1.9335544464083 -1.2062641305696897
H 0.5685226123467317 -1.8193588897680277 -1.7576737565286558
H 0.5563333780355109 -0.7911146252970078 -0.41903928402158686
H 2.48121552730182 0.06308804726797367 0.3910610733961465
H 4.542570146016185 0.6608385897253446 1.4064273125670745
H 6.174240879900319 0.1763358328368229 0.6708971296360974
H 4.65404492888271 -1.348088453166582 -2.34304047875912
H 6.808175796728137 -1.9730376196550803 -0.24713947113050835
H 6.790017331087349 -2.458562328556075 -2.0271690569858642