17

N 0.8154365169368787 -0.12368395647944522 0.7104183332831286
N 2.170461935900271 -0.1751721015544966 0.8102915130762048
C 2.843373665325438 0.8482686313271363 0.4888781825226975
C 4.3214525139502955 0.8971534856824462 0.6746193776239495
C 4.756544634057105 1.943622149233005 1.7051009608937966
C 6.234749345399424 1.9908302782038683 1.8786087472010358
C 7.000938079578965 3.05449549546875 1.6438932072166732
H 0.4411233371695428 -1.053600238191261 0.5681739894279603
H 0.45798246918800206 0.5316827471310399 0.0174467470037076
H 2.3425130825420823 1.7498633981321945 0.08894436237863018
H 4.804110401803965 1.1243322964759757 -0.28731941673283423
H 4.66232664064027 -0.10293494389070461 0.9806417942643942
H 4.282426769742619 1.698628293841814 2.66294157785379
H 4.386476979789544 2.927518688638276 1.4150402499094892
H 6.703114095415503 1.0677287394827009 2.210855724368183
H 6.576056770196835 3.99869451708094 1.3131132781508223
H 8.0748167425274 3.019930606123751 1.7893343138252642