15

C -0.8710678231028911 -0.00327442915977046 -1.2178406652265164
C -0.6205284038503303 1.0222480023861382 -0.0907810281355559
C -1.340482008594025 0.0039572455036236 0.8299623317616
C -0.6188441979664427 -1.0230996600249394 -0.09368922804842465
C 0.8348209642458403 -0.7277369404571077 0.30496372961423046
O 1.5951464522598315 0.004480587153004064 -0.6526256128651882
C 0.8318165749476523 0.729488857210143 0.3020106092846181
H -0.20703246054041827 -0.002109219847625313 -2.0819515364587424
H -1.914083535520166 -0.0002540706048145276 -1.5319538297033346
H -0.9281663169924205 2.0621010506185753 -0.1743023888831525
H -2.435020609218527 -0.0017491802763886508 0.7100653797998796
H -1.0795078617476894 -0.0021889149800021716 1.8967858738478978
H -0.928509963641507 -2.065087971268726 -0.1674800839824118
H 1.3902780620677593 -1.3530805398113128 0.9888277525839279
H 1.3900117868546262 1.348538030599999 0.995615122454851