15

C 1.7656587613192414 0.0018180914901231439 -0.5092698802264443
C 0.797704868648075 0.7582377945996921 0.3543078297622853
C 0.7981968472858814 -0.7526494368964755 0.36042427230685437
C -0.6401893357913102 -0.9658124238686705 -0.1179019057745266
C -0.8403824974697669 0.0022181252986462423 -1.291420290124412
C -0.6394647376570783 0.9627191692079003 -0.11476552770175312
O -1.366116875544772 -0.004901948221891551 0.7142275734563874
H 2.7980595321776596 -0.0014054973032802454 -0.17449749026071357
H 1.6623903910491806 -0.0028984082706400953 -1.584366980643751
H 1.1650960877652112 1.3290266448726515 1.207299976822388
H 1.1625077921603713 -1.3288932630279646 1.1978504598912887
H -1.0579641996125875 -1.974244151338901 -0.08587931822877325
H -1.8825022263242952 0.001919777784897193 -1.602021929938076
H -0.17659457706719872 -0.0002302816863273746 -2.1459758334679364
H -1.0567815219946386 1.9714154127956562 -0.08917657899210459