13

C -0.8260336631752684 0.004462402236067709 -1.3102146521187348
C -0.6291547391543314 0.9632543770745464 -0.1421892019063851
O -1.3254938627796808 -0.0020150310375330895 0.7094889364363082
C -0.6309402714784009 -0.9686032423860099 -0.13633618583814208
C 0.8259630510936091 -0.723944452000854 0.30287209777253904
O 1.6135052908252725 -0.0036809246900075003 -0.639723382173731
C 0.8268409659453184 0.7307195626663667 0.29561204689596843
H -0.12026723197241754 -0.003269746905828378 -2.1387023031322583
H -1.8643678343086225 0.001539317031100502 -1.6374849764059063
H -1.037844550332277 1.9708977671581478 -0.0909201455899281
H -1.0449991508722873 -1.9696037725600493 -0.0974107797590169
H 1.3505272419506675 -1.35796065064281 1.001428150547582
H 1.347088853385769 1.3600970540248183 1.0007890769093724