13

C 0.5450412821084373 1.2281280733017506 0.7044977826196254
C -0.876978591472387 0.7964858048248696 0.4702307314375886
C -0.8093230196558403 0.03248990550143232 -0.8422957933288626
O 0.5299591691857793 0.033882158009316155 -1.2720689953220135
C 1.1422683563388636 0.007838986322925012 -0.0016139326046673813
O 0.543448327056973 -1.0844913126113285 0.6644125170470723
C -0.8019752381900704 -0.7221584177564356 0.4567969140744023
H 0.8258653278691614 1.2646261951735096 1.7652602453351487
H 0.809061819720226 2.1556994171548616 0.20842870925699414
H -1.7500148522482666 1.3429139163558363 0.7943276613252256
H -1.5640703587743496 0.001940654155724986 -1.610955139498338
H 2.2248835930175597 -0.12041404844419916 -0.08189107205960007
H -1.5444137953604498 -1.4122906145811525 0.8171297139267387