17

C 1.1447310935194774 0.03415019461391903 -0.004416394464918518
C 0.7057767710841258 1.2153459767941974 0.8201375247756933
C -0.7487743315969755 1.4385608179067406 1.0904744186663673
C 0.16157412029741866 1.0068011192578707 2.2048012896164777
C 2.5661763100280957 -0.37081389592822 0.2880327677304399
C 2.896352254059242 -1.4531219572535883 1.199123576956391
O 2.977921186558705 -1.6316651527798263 -0.2039998003001838
H 1.05837714067207 0.2650440844479836 -1.074874820281681
H 0.49424368405050884 -0.8218004480677658 0.18188677840415832
H 1.2986637579541773 2.1136913200751115 0.6772350103281861
H -1.4483881829288106 0.6999339422832521 0.6992814858802041
H -1.121699938110752 2.4481031207847535 1.0935128274912829
H 0.07984555924769328 -0.004409459965343045 2.5650455874987865
H 0.4098363828925311 1.7324493009508515 2.9677458330808224
H 3.3122024609753162 0.41548269617030387 0.15517139684044295
H 2.0967478404886717 -2.000008152157176 1.6835377155338007
H 3.848432422753901 -1.4552199770155776 1.7299267608971878