17

C 0.5586647252112403 0.2097677791755823 -1.3226367214224233
C -0.49550091593310175 -0.4984860898674622 -0.5107450663636158
C 0.9333035217210712 -0.6978487419745041 -0.1888224436878363
O 1.3826592248525433 -0.12803744349309068 1.0029737001853265
C 2.7486283050115494 0.14542635645848032 0.9784066904657465
C 3.4244246461245815 0.18549392970008413 2.2947682730691925
C 3.715832353991213 -0.9431760199503662 1.3424366827010488
H 0.6719907750634438 1.2737940791651332 -1.1529903274136133
H 0.742665200262127 -0.11445995606880098 -2.334429065955855
H -1.0433353744335376 -1.3169134456379363 -0.9624588859664354
H -1.063548822498907 0.10438518923151505 0.19289885504341017
H 1.4022592208448377 -1.6510249105255974 -0.43365346016923983
H 3.0477346048473213 0.8555057810937162 0.21427733142040878
H 2.8182273411988112 -0.046071910364054613 3.1628617105608923
H 4.191360718084046 0.9300291959099244 2.4641431988019415
H 3.282542536780487 -1.907421577037567 1.5887234974406765
H 4.670031271923275 -0.980360723637555 0.8362146567824333