17

C -1.2591261176255533 -0.7884739803808831 -0.5164081675076171
C -1.2311043769148249 0.7620178640898455 -0.5241678967414892
C 0.016482940911434405 1.0574183596840716 0.31534350007211503
C -0.024047883530768217 -0.03110660519869351 1.3666488839027955
C -0.013944473355970858 -1.1396657248541398 0.314189185207666
C 1.209734944535194 -0.7078659011081905 -0.4903672931373788
O 1.1578182200580613 0.7183538822715145 -0.4627943439974468
H -1.2122585177031482 -1.2098141766017292 -1.5158205535428924
H -2.1678005916685024 -1.1700552704119123 -0.0337384444563544
H -2.1259277149046607 1.193791680931713 -0.0654415405002157
H -1.1265360130697868 1.190183592245697 -1.5253653382876928
H 0.1246410514918597 2.0892093208209275 0.6529273760898465
H -0.9296391141529865 -0.021905050990542782 1.9754977240764142
H 0.8522127546361942 -0.028622780749585224 2.018653383870599
H 0.02396259167007948 -2.1647117097455544 0.669591521435387
H 1.17311703623917 -1.0609639325205544 -1.5239461193129162
H 2.144111948107459 -1.0571624299746991 -0.035312373234882094