17

C -1.7134166985204213 0.8388548735951185 0.5368829247342743
C -1.1707274358070439 -0.27791402075437194 -0.2884518472718982
C -0.2931312616296687 -1.3431343631565238 0.3211374922827425
C 1.1093056790298557 -1.2646996160946038 -0.2854739683168252
O 1.6757983012234283 0.032467875237213936 -0.2556224742974321
C 0.8644487290891941 1.0574319652531448 0.29324038870669666
C -0.5087293924977659 1.0816067985698756 -0.32075360023570143
H -1.5707408940972303 0.7950232192202596 1.6207203648017023
H -2.6482793850503596 1.2957505330894405 0.23131079450519523
H -1.7381032616743592 -0.5634446776240737 -1.165322403321264
H -0.6961940790409041 -2.3448362172709074 0.14561073804065588
H -0.23332231335340625 -1.2096511685106226 1.4048284014921657
H 1.0563807979645752 -1.5801317459581246 -1.3295809220976547
H 1.7874711740006421 -1.947745419172635 0.24303127260756935
H 1.4067691190870675 1.9878546024255943 0.09498681605009221
H 0.7884134074560134 0.9512802457324421 1.3784259290785141
H -0.6401306658342435 1.6820491096695458 -1.2131858924808823