17

C 1.6951045152229394 0.1505895652786134 -0.8677425444795421
C 1.9436964065871387 -0.0900666765757755 0.5949935548478498
C 0.5528919741591635 0.013139327800600417 0.08777025068973945
C -0.3671268235377825 1.1735742516106766 0.3622279255849178
C -1.590243624987391 0.7502769184021163 -0.4347116970202236
O -1.672379717251049 -0.6526746335440972 -0.29667534101294507
C -0.38187604852199286 -1.1724913798994863 0.013689324380754965
H 1.887511432879417 -0.6690882306215074 -1.5530224469758684
H 1.9204679165790857 1.1278396033494171 -1.2648534136169964
H 2.334089866043391 0.7289379163688007 1.1891593724373681
H 2.3040974176962004 -1.073287104080624 0.8901214812886261
H 0.04491385237073216 2.139794489076938 0.04418963141712593
H -0.6119900980082218 1.2388376675386465 1.423540402518066
H -1.485977778932082 1.025237865249368 -1.4862251779460733
H -2.5294783167042323 1.175302734542503 -0.055878566927415066
H -0.07805730435842359 -1.9078528884620725 -0.7407001041423384
H -0.4495293626208155 -1.6913893910854167 0.9796924216494465