17

C -1.2456519946439075 -0.7770774957519014 -0.5376089339265934
C -1.2475577705269993 0.7691090462390348 -0.5283133703268122
C 0.002513551284622048 1.0673304425926378 0.3102559712880274
C 1.2537268964461692 0.779912350362725 -0.5202182608895556
C 1.2610412155616335 -0.7691408503395233 -0.5243963430566624
C 0.005248033755137998 -1.0705910465492086 0.2971723549705175
O -0.004768802579687533 -0.008731888455630228 1.2577077985311313
H -1.188450833155043 -1.2012100831351895 -1.5414440256884119
H -2.1339476516853813 -1.1716590864335659 -0.052969969522859865
H -2.1409937151126317 1.1622569746042835 -0.04238081927199691
H -1.1930492789537928 1.2114524917189355 -1.529711804463239
H -0.010895194120229958 2.019007070301348 0.836837863663101
H 2.1456572264545906 1.168387674151141 -0.0209442371724901
H 1.2044854686604094 1.210347695733532 -1.5123053371814166
H 2.146716266014928 -1.1639579300923484 -0.024806865624041906
H 1.210250711386779 -1.1946268046942436 -1.522326520119119
H 0.0019903850550889897 -2.0307416450024864 0.8144947553352538