17

C -1.7891526995687204 0.6815986565873577 0.2981180038703409
C -1.696658965424064 -0.7276302970200367 -0.3908976335874623
C -0.2393072544182485 -0.6844690669529043 0.10292691059198289
O 0.9944609338505067 -1.0781218027779764 -0.44732328682801437
C 1.8897955856606155 -0.039154680037569056 0.01709050094166506
C 1.059768804037362 1.1580190527224505 0.6075495355858515
C -0.274390386317021 0.804785461378155 0.0004580081132025478
H -2.020655854889382 0.5948328454501867 1.3563267226673097
H -2.456221275375827 1.42272289102433 -0.153811485842655
H -1.7736700594627788 -0.6259195147872474 -1.475322079347385
H -2.340035937972028 -1.5248244319926176 -0.031704943005225264
H -0.2647246524150113 -0.9709598427527484 1.167978526941286
H 2.4970657078157132 0.26998831317000344 -0.845712495209861
H 2.5692423071946107 -0.4583036211691433 0.7687537804709862
H 1.4899716988453569 2.1167009280346116 0.30775411913016554
H 1.0392400794503012 1.1083330699818037 1.6986163700759633
H -0.21943737096492075 1.0198496175911573 -1.0812376597066011