15

C 1.8996825427139208 0.051383283579597684 -0.7462981671136163
O 1.690714604050786 -0.09958129623625211 0.6543259020588665
C 0.5550184263080016 0.03731724935485645 -0.1772802910664635
C -0.3244570914268235 1.2541753068571653 0.03303771736780652
C -1.7305964188057232 0.675062119848051 -0.12926984273472636
O -1.6108743046115719 -0.6883764217460588 0.24100536065931186
C -0.39221384718798447 -1.1283353412800745 -0.3038304465213155
H 2.2708989829236343 -0.8208569571147802 -1.2599903980200506
H 2.347207419460395 1.0020969685580219 -1.0540096805625885
H -0.12116662443254231 2.0681743816104565 -0.6721684017809423
H -0.1701584617118857 1.6234023018277164 1.0468725039708653
H -2.070672193532646 0.7542812281597507 -1.1694704755638725
H -2.480038199037067 1.1395300274641398 0.5169186383909206
H -0.5266433557388455 -1.4093329893165398 -1.3598120178609203
H -0.049110956568490946 -2.003669429564565 0.2454423592479113