17

C -1.8020135495346146 0.6336471337074131 0.26411443831440506
O -1.720771093863448 -0.7000510530807832 -0.3022632135997323
C -0.31521224179952495 -0.6824680114473036 0.0566292956144228
C 0.9493173727402248 -1.0928082212906811 -0.6501978897706004
C 1.9071256042604137 -0.022063868209815516 -0.006917374396012824
C 1.0287923222309687 1.1263993043215272 0.6252931759804833
C -0.2938314619325913 0.7994025386193903 -0.019589078704417312
H -2.053940325591905 0.5904138341913299 1.330063589495975
H -2.5094457934790744 1.2725255660540873 -0.27270748305846004
H -0.25072856832631507 -1.0171728435004224 1.1035518760831593
H 0.8639007736011505 -0.9513235990162189 -1.735230199454086
H 1.2864754543674455 -2.117907533667125 -0.46107312850048104
H 2.583261920303435 0.37546548065318497 -0.7632838028308788
H 2.5363349081752804 -0.4816429829470048 0.7579153169736889
H 1.4303896460867531 2.1134817765618283 0.3891916811885438
H 0.9990622375565448 1.033184467416233 1.7122631197684948
H -0.22902825376250874 1.0619808976582008 -1.080138230723713