13

C 1.5090621833370992 -0.8167666914541902 0.37439271717128375
C 2.5062771190127333 0.32122047109993185 -0.05578976662958377
C 3.186082397452279 0.12589572871575935 1.2809838749332791
C 4.070295329693343 0.30422662892569885 2.2883592449876566
O 3.754084660580387 -0.566540245247543 3.2840561744736663
C 2.665881930195936 -1.3000072279709696 2.9044629735790535
C 2.3021145514053596 -0.8910099471124662 1.6735479078649753
H 1.5486426159857205 -1.7159311416913454 -0.24659218731205823
H 0.47434164886455715 -0.4977080180960504 0.47420046279419126
H 2.045136864271056 1.296082751308063 -0.2147938051018078
H 3.1116515246092122 0.08354374261671275 -0.9350568108810073
H 4.915906663224146 0.9463412090625927 2.482562610579253
H 2.326436027235448 -2.0232670160142447 3.6291517132113498