17

C -1.7777253603309568 0.703618068436795 0.34417953976737803
C -1.7782607474717196 -0.7047068125751141 -0.3395757746253839
C -0.28726223077444846 -0.7583436938307927 0.04199354765209611
C 1.0670839009748325 -1.0660434734956925 -0.546267006788676
O 1.87761498959707 -0.0003335000385309311 0.0022020093218069795
C 1.0640003951579708 1.067893889195455 0.5533859729207755
C -0.28319764672200004 0.7587112081541316 -0.0390707659837502
H -1.9398535752822748 0.6063278212235584 1.4200196603582207
H -2.4332781253919658 1.4774180839916224 -0.05702265801134684
H -1.9283966538539947 -0.6070316447692623 -1.4198702269756502
H -2.4360328999219116 -1.4708238262124154 0.05366883955075776
H -0.25638206752923504 -1.0241631686491992 1.1010135119459248
H 1.0787952058147685 -1.0136422816993436 -1.6464764638437972
H 1.508928014912091 -2.014544037688076 -0.22405342805270173
H 1.5163200798163907 2.0064671226330484 0.23695153529131338
H 1.0718231139626855 1.0085820672448789 1.6474060113640294
H -0.24423999683357608 1.0266827631765492 -1.1000936904091756