15

C 0.32780929974829176 1.4411902615654317 0.36403841164350037
C 1.3649683783267177 0.3470580890005 0.06128515087974154
C 0.5068730572408494 -0.6484207940035274 -0.7655761960090429
O -0.3316112265903234 0.24691637271344263 -1.4948311577116702
C -0.9208163884496428 0.8651697100775608 -0.3536241275906329
C -1.3617888279053885 -0.3252458503062292 0.468790673195929
C -0.46953646007351446 -1.2822528827355457 0.2057926358352454
H 0.6127726020554548 2.39339603770521 -0.09886787150337983
H 0.16317276367636271 1.6113717859770498 1.429786649015522
H 1.7862214155833487 -0.11802202981969089 0.9532444033572313
H 2.185402620367237 0.7198325624689582 -0.5548215924350105
H 1.0423359288594944 -1.3113159312639802 -1.4384411138605262
H -1.6791976675615923 1.5833396077675674 -0.655667911144659
H -2.1721592962635996 -0.3372863991896922 1.1824511350353053
H -0.37374924320555936 -2.24740144739327 0.6717276368654107