15

C -0.3674664212489513 -1.0227728471381465 1.1746186405420491
C 0.8021665216353661 -1.2678785085432038 0.1977656218250599
C 0.8965806432930534 0.11096950748951974 -0.49040369103097625
O 0.580825241973658 0.9927346711636736 0.5884686280408694
C -0.7177409631264644 0.45372599647171996 0.8406648456890043
C -1.34544029655702 0.4515306138724943 -0.530765799444384
C -0.33334415063544964 0.23324047921398747 -1.3689447148517442
H -0.04516361299938647 -1.1077096795560688 2.2132899752846837
H -1.2137758946970836 -1.701519440238277 1.018805762366396
H 0.6205743104447111 -2.0769607824337903 -0.5063893941133202
H 1.724466554895245 -1.4836654386995087 0.7387606529018924
H 1.8581577116268457 0.3706711326605268 -0.9259890484855073
H -1.2217880841962752 1.0114874548424666 1.6322187389673657
H -2.401138594842921 0.4850622195415652 -0.7501588245251146
H -0.3634620672471938 0.059823483301260666 -2.4362446439736