15

C -1.5049629114317757 0.7816354369483841 0.2013258269737035
C -1.3647258835222882 -0.6838074833454086 -0.1582881245461234
C 0.023394075824557693 -1.1871939888349274 0.1460111511479493
O 1.0139439354704531 -0.922057766442671 -0.8394909488615068
C 1.094036504525371 -0.22791648779969245 0.3939985052166873
C 0.7838580621631791 1.24616678843147 0.3586437416498346
O -0.4193391560700655 1.5467167442299563 -0.2976101009978869
H -1.5640077939944228 0.8946270411659246 1.3033238428827778
H -2.4107557626964744 1.2103955110964832 -0.22166960713648695
H -1.576398100076191 -0.8394037852677931 -1.2172595444350147
H -2.0997915042367943 -1.2717152485684722 0.40705503329921333
H 0.10384052456677155 -2.1905886187763786 0.5753533800859958
H 1.9319410561233197 -0.5061276444403067 1.024931121265316
H 1.562086571821112 1.7884006925272944 -0.16878464417185565
H 0.7570066302766086 1.6057278951817655 1.4049750745851937