15

C -1.0158405510968076 -0.04877071682428528 1.1036577663889477
C -0.640399009655655 0.9831173731168419 0.032041328056296656
C 0.8638680071487336 1.2678666933857807 0.005905679975176452
C 1.5990164039456372 -0.045114618621418995 0.01919003865567598
C 0.9006232094269185 -1.1647814360742832 0.010567014667295134
C -0.6011318219100875 -1.011602027859887 -0.004492197610091911
O -0.9411573490804228 0.0003576790124764709 -0.985519700239867
H -2.0946337565662017 -0.056818977700090104 1.2832228917033646
H -0.45916586532426307 -0.06347702756938554 2.045645049493904
H -1.2470949412796706 1.8904533516043982 -0.062274914963999145
H 1.144114342317152 1.885324209716382 0.8693770591087138
H 1.111442655180497 1.8475744936583691 -0.8851836151463576
H 2.690269590183376 -0.038894435974248874 0.009969830552287642
H 1.3595300590177049 -2.151543150491436 0.02692914474983625
H -1.1425830961785948 -1.9383787474489624 -0.16407463857649257