15

C 1.1408334654505217 1.1841625507552558 -0.2841558195494618
C -0.18128445433812354 1.5932214225041532 0.37201649997178193
C -1.3462963739519525 0.7507943804734084 -0.013023453613919817
C -1.430427555285635 -0.5673441306086784 -0.17836612615833605
O -0.5020729333388223 -1.5385151865397875 -0.06122706172057743
C 0.8324848634738957 -1.3326813082888955 0.0988757939767188
C 1.5595683281729817 -0.21935857481559795 0.01490298048662374
H 1.931207960416012 1.8612437675275588 0.03830799166273385
H 1.0459958354675152 1.3153279751078093 -1.37123005290405
H -0.40023474925852737 2.6363938531661995 0.10599861723617121
H -0.04373244847881195 1.5822417307872505 1.454099183071939
H -2.2895907720843267 1.2644743214848793 -0.16666676313443635
H -2.376373869142781 -1.0170604858945218 -0.4401292942812509
H 1.3068507268374874 -2.2793121781474817 0.3122331299711792
H 2.6150708074522395 -0.38614898062178044 0.17565704932804424