15

C -0.043544544716535044 -1.2841564881202638 -0.5026546935076156
O 1.2135061165144425 -0.9855697328396157 -1.0933418543705442
C 0.8568051074615839 -0.3036542014432956 0.09579337209986567
C 1.661665218261066 -0.6005603669607417 1.322418241666044
C 1.00355636996854 -0.2362390672002129 2.6672776744445286
C 1.1897874851172703 -1.7191296070809285 2.989593648327774
O 1.7060775965778523 -1.9869395979321907 1.6762258628070152
H -0.11877092751323584 -2.265408096784868 -0.047457402176533756
H -0.9152959651251392 -0.9431516871651647 -1.061998901828706
H 0.6381898147153748 0.7549685784586722 -0.04001798664160145
H 2.6670537277774544 -0.20035223608045352 1.1916843572362623
H -0.0372083433939941 0.08475419342408912 2.5789028528092843
H 1.545779382249497 0.46984176867134175 3.2914515550201595
H 0.28518713883779867 -2.2913486164360166 3.198448200570356
H 1.9407164719589556 -1.9281367213983118 3.768014034414643