17

C 1.9277506581651085 0.04176357935261901 -0.584706814512271
C 1.6062148850950249 -0.13078768829089188 0.88559234513236
C 0.5254572597972373 0.08897974133278484 -0.12196469874735534
C -0.35561844763329065 1.327581967613009 -0.11485928065280168
C -1.7762442109299363 0.7314512512857825 0.0020023830144667476
C -1.5196885754281344 -0.7616754323869543 0.18550860036410588
O -0.28521452504670197 -1.0078891727620558 -0.459337761607995
H 2.2352998023684156 -0.8385875004031654 -1.1347575117910464
H 2.389443966525227 0.9664656855747421 -0.9043730966331983
H 1.8630394300727655 0.6651363082515396 1.563560341094427
H 1.7105238405289855 -1.1316671029694971 1.2852411736914655
H -0.24916837713775503 1.8949299159593767 -1.0474979062859269
H -0.11286484943104234 1.9879056428821174 0.7153810603462173
H -2.3473720664268787 0.9116454900636334 -0.9104869497079079
H -2.3436055585629547 1.1542762543017964 0.8391636612705143
H -2.270024313103313 -1.3971685275503898 -0.27223582903020754
H -1.4421221079149271 -1.0163785721554184 1.252561293639554