15

C -1.3797252365297386 0.7811439825691497 0.5870294634757263
C -1.1498756881724101 -0.31493937795088217 -0.42294958871191685
O -0.368148195576746 -1.3909142668707928 -0.02298802510267322
C 0.9724837805126 -1.2715899645242694 -0.4570037231604761
C 1.5704304422822932 0.023791784040248922 0.0449675076811855
O 0.9015127701119521 1.1485015321688392 -0.4885116757053439
C -0.4813424062808732 1.0106332122682624 -0.5933453967095262
H -0.9160987411741605 0.6114426254781278 1.5487962572108949
H -2.3318996918628674 1.2847475319869128 0.620180934601253
H -1.9528004836291655 -0.5984560314454208 -1.1008616300708058
H 1.027868820537767 -1.3059056007386936 -1.5512166222539576
H 1.5137590558385956 -2.1214769977400527 -0.04936466854711227
H 2.6159727965730455 0.11763133175726992 -0.25736874823751227
H 1.5278356889954514 0.032737909448311134 1.1503237242197746
H -0.8551851626580127 1.6621320057187996 -1.371354052868114