15

C 1.622520411830974 -0.11728937921952469 -0.06343130809326489
C 0.7088543033949853 -1.160182697088779 0.521813919185294
O -0.4225826392347896 -1.4489045410134904 -0.28381102766019073
C -1.431263515691077 -0.5596980575517835 -0.17431579014511117
C -1.3361227401884757 0.726998521533784 0.185651094594714
C -0.06532272590739602 1.4971859768918738 0.3835968018375299
O 0.9829198571377785 1.0725384399993285 -0.4571802743306688
H 2.1071394835346444 -0.4927436758426894 -0.9667091121900677
H 2.4115593300170475 0.09717359905812852 0.6787605636878067
H 0.35319076401941024 -0.8770825045454375 1.515379589672266
H 1.2637604735464563 -2.0973966562264517 0.6209957051350488
H -2.3867525292102925 -1.0058501176108436 -0.43010165648785004
H -2.2667197061037636 1.276850661297449 0.24971125422551263
H 0.25682592352417866 1.5123065542887755 1.433220813935299
H -0.24940858340267044 2.5427645538854358 0.10192238178895888