15

C 1.1757473290741134 0.23304022773493918 0.20311120897846935
C 1.169123486888826 1.6281630221807497 0.7533998041556353
C -0.04454441365685867 2.428884853855827 0.8193082596387616
O 0.4821512068305906 1.8166922985058156 1.9904260146217536
C 2.172971034544683 -0.636338464571025 0.9123354118854021
C 2.8987786625824463 -1.6948700238046623 0.21852269682607225
O 3.5324409810861437 -0.473513286437802 0.5382817757602625
H 1.424623717589852 0.2621288960499647 -0.8695754562522348
H 0.17244701025901474 -0.198297664355358 0.3084315076484774
H 2.121724789070256 2.1509107013102926 0.6970680148729386
H -0.9817489294326883 2.0026089948616215 0.4602355044893055
H 0.016465166124433453 3.511346053849814 0.8015086036394105
H 2.0189548292643216 -0.7491706522419266 1.985102458939415
H 2.722124978145312 -1.8591467293384774 -0.8435805167596887
H 3.2534249450682755 -2.561002046267953 0.7713365861078573