15

C 0.29948221396443675 1.4114834496961672 0.5079336418692512
O 1.0985730602320343 0.43927749410710815 -0.1625473363076262
C 0.19069224064360432 -0.34747025055450464 -0.9634310267571046
C -0.8044435222432109 0.7129466752576157 -1.4355545039455138
C -1.1405322011269 1.0956807796195878 0.013963749634961333
C -1.4650519926207346 -0.2502895052886049 0.5958246341977216
C -0.6623884545606187 -1.1403272124513748 0.004746668482546809
H 0.6162557501974459 2.411113310527006 0.20803934431544388
H 0.4004551455051146 1.3045909603177834 1.5936715492420144
H 0.7649942869407029 -0.8913211668894093 -1.6973326737402512
H -1.6545246676529004 0.3084136119953833 -1.9665917443845224
H -0.3257836049588395 1.5058415880536469 -2.009111406063163
H -1.858467860223218 1.9057658403117415 0.17730584220099527
H -2.1251069241156726 -0.43076288299576937 1.4304051199582646
H -0.534976204723882 -2.186935796011548 0.2486783094042966