15

C 0.7600707268762378 -1.3855775557981482 0.6834917034025845
O 1.32910137459631 -0.1070463229387725 0.9660676009933693
C 0.7152593321674969 0.487433789556264 -0.18531464097350658
C -0.23785810279842812 1.622671486148286 0.16334918475993324
C -1.554220744470514 0.9153402801985018 0.32942191436942503
C -1.4936496851184202 -0.36746656341920947 0.0018048144826923267
C -0.12283247460091738 -0.7783851939950952 -0.4228897919867282
H 0.23952906548149355 -1.807022621989138 1.5450557588906952
H 1.5176734655119135 -2.0925005605299525 0.3139872657027605
H 1.4659673956325008 0.7555867172400502 -0.9382760418537786
H -0.28717180567723327 2.3834215088841693 -0.6283029252284643
H 0.10092071358117062 2.129753291771043 1.0707241320650094
H -2.4438822082992964 1.4203048837732857 0.678356045172201
H -2.3237140815968527 -1.0579418856231575 0.04069414789479759
H -0.08172391310453164 -1.2736771111553629 -1.3973800493916122