13

C 1.5769704719342292 -0.24348755753483686 0.15663513569029933
O 0.8464776260148358 -1.4771833658791083 0.11304689995230963
C -0.19080552210703022 -0.8835335389498975 -0.703510990576489
C -1.4034598151236117 -0.4203805608486632 0.03165042990027328
C -1.2924842116897581 0.8978698993994448 0.23757563767610038
O -0.17469081664151578 1.477788854414682 -0.26820922894308064
C 0.6117909787411179 0.43264263965038824 -0.810742974466824
H 2.608137306369499 -0.3768258385418009 -0.19093558216243636
H 1.5818455359442978 0.20835460568274347 1.1525001827980357
H -0.39413604848175443 -1.4935492076139423 -1.5905798149087498
H -2.2375883935429006 -1.0334557428150244 0.34233771857261686
H -1.9707779110587897 1.5720315190882257 0.7307382299423154
H 1.0072664549003862 0.7533079743470383 -1.7708920394518393