15

C 1.9023209353275439 0.06831333858476074 -0.628222042439106
C 1.6675072843413563 -0.14600790535984526 0.8524273202836384
C 0.5248109462883599 0.06710426395741437 -0.08622983927596913
C -0.4064692461884978 1.251473769719615 -0.011058013544737113
O -1.6808101710309225 0.659951290513315 0.19404215000786698
C -1.4832754082592425 -0.7239290971988019 0.2982208570972586
O -0.30753802118855306 -1.0150740523555366 -0.4036220676082857
H 2.195434159506014 -0.7840097498949987 -1.2139287031281452
H 2.3140979902018466 1.016751452353633 -0.954725982490755
H 1.9335375449019812 0.6498322111492368 1.5374646668502139
H 1.8147840355603817 -1.1516974331136498 1.2243939537432256
H -0.4324691927003472 1.8156291970859333 -0.9466295604680066
H -0.15839405081304464 1.9285595735996373 0.8128800010414619
H -2.3192263428529403 -1.253146232788482 -0.17382332136854403
H -1.3798843499254116 -1.012596241276797 1.3518570451855056