15

C -1.785798982750579 0.6386849041119205 0.27348728872248773
O -1.7179821603982475 -0.6799080582501026 -0.33821644882277374
C -0.3237997196366136 -0.6875452736506639 0.04224409396845981
C 0.9720043379225599 -1.034440446791512 -0.6270155405847465
O 1.8204465370597973 -0.04273173342521104 -0.004098235195493966
C 1.0641004676572545 1.041453759777892 0.595902339221513
C -0.28757051566181 0.8039155882498402 -0.007452216683266374
H -2.04293952236802 0.5594936715144053 1.3387499185474563
H -2.486112877114508 1.30129406794169 -0.2441895820004395
H -0.2693861858258943 -1.0426811700555565 1.0902942395844977
H 0.9410354558222923 -0.8967673411007804 -1.7138995885355386
H 1.3876004498934753 -2.0181553565446064 -0.39720316933386024
H 1.5562886769513284 1.9800707385705991 0.3089629230797444
H 1.0849013521384614 0.9503796724670059 1.686980941681619
H -0.22466614008715866 1.0735758530083659 -1.0616959856659185