15

C -0.46074927042676644 1.455054143732477 -0.4248073778021213
O -1.3018954858847456 0.5684362918348533 0.2605475085982827
C -1.2988525614514383 -0.7555371737852806 -0.23355930022437865
C -0.21989189237797965 -1.607825934478604 0.35061417638537506
C 1.0478106505929312 -1.2269248129876598 0.44815571125568165
C 1.6210152841340337 0.01714754148808905 -0.0392703725521872
C 0.991228756084101 1.1300718412880575 -0.4412827930191198
H -0.5901765097775001 2.417741617652357 0.09032416717273477
H -0.8107368502271506 1.6110856376810547 -1.4564984218623676
H -1.224203074383943 -0.7560978168443654 -1.3336996400862104
H -2.286539232600319 -1.1694864121652215 0.015784380809728438
H -0.508985058549557 -2.5842192604450904 0.7286463441238108
H 1.7607771704323512 -1.9260217940604414 0.8946440356889915
H 2.710924855056532 0.03524214338569806 -0.09807877658281086
H 1.6078660458616816 1.9429030799189722 -0.8225224059171772