15

C 1.5939708375676747 -0.16443400875176534 -0.0604959117374807
O 0.7520952343005329 -1.1589000953574218 0.42832227999584205
C -0.3455876646761507 -1.4650529258894827 -0.417442661139838
C -1.5044700987355073 -0.5346269564396394 -0.20273519699553202
C -1.3871825201320458 0.7264726773928154 0.1910392546476716
C -0.07516755714471779 1.4512250141265675 0.36530341822173223
O 0.9176760385020155 0.9589776893444579 -0.5189509343024299
H 2.1785841245919344 -0.5142990210129912 -0.916120869715457
H 2.257364592138739 0.07272115676913975 0.7795195734687512
H -0.650657557727971 -2.47889133339091 -0.1626339537749907
H -0.0302444734827632 -1.4630884523311547 -1.469918651122556
H -2.4879143878699987 -0.947781712574535 -0.34986600033550286
H -2.2845445550095484 1.312819214958675 0.3820754707353108
H 0.2736241276851046 1.3993055954395988 1.4035867829816384
H -0.21114407434912022 2.5054353280876343 0.11722578111505477