13

C 1.0726769793681514 1.1720349383347173 -0.35859273261880453
O -0.19225495242352517 1.5899091960109264 0.13257425346806456
C -1.2578148710161776 0.8084995974708561 -0.08903474162409532
C -1.391712460310398 -0.5166976042070794 -0.13690881355130832
O -0.49446006473081705 -1.5210852741451302 0.03936983018782506
C 0.8331118837424806 -1.3188083172914864 0.14956471016422046
C 1.5391586329409117 -0.19253827375588717 0.01894222963611247
H 1.781193720760391 1.9113631537738895 0.03735178761326771
H 1.0702175573005102 1.2798133744101647 -1.4485310260900306
H -2.171703183143611 1.3828345373740885 -0.22967199494044194
H -2.373991465559967 -0.9290030799658258 -0.3186561877966806
H 1.3253648958586255 -2.2489828607814353 0.372106734399399
H 2.6034256675299146 -0.3088519701555771 0.14243070985836212