17

C 1.5079433125998776 -0.20562056212485835 -0.36001837316527613
C 2.9085982817091023 0.005998383499589132 0.08911273650482389
C 3.7170740649604044 -1.0512666263162718 0.7883915164717151
C 4.133108507809817 -0.5523663685506492 -0.5721035611597466
C 5.144482124277194 0.5829285951903623 -0.6154079845856864
C 4.292185728032286 1.8037756843497215 -0.2542605214595962
O 3.2033041474383515 1.3167690404494876 0.5114631248065926
H 1.348975878100105 -1.2415331876300633 -0.6800609442605171
H 1.2611193192311796 0.44915473572814973 -1.1961308878607175
H 0.805623398483544 3.375810328539415e-05 0.45708370101894114
H 3.304631450842375 -2.0557788552959058 0.844013130133437
H 4.299598915916599 -0.7386758265235094 1.6389359559684868
H 4.045513548148593 -1.220875702348693 -1.423387327709105
H 5.603221015851368 0.6765177706390262 -1.5988051186964913
H 5.9488997813532105 0.4204674344703576 0.11505795886803269
H 3.928846428211032 2.2835569242929994 -1.1682339071024703
H 4.819166294555821 2.5453689686326157 0.34634563767076093