15

C 1.3350131398933691 -0.20950709969139755 -0.30458028951395444
C 2.7822773814829818 -0.01745531879064832 0.016487945472984628
C 3.661031980329804 -1.0891160062700325 0.5891920835628026
C 3.9366875154051155 -0.5269247477716068 -0.776175140255633
O 4.888488469042511 0.5148774427749788 -0.8097286147674856
C 4.152187747959102 1.6702971290362034 -0.49829853483146574
O 3.1493983891242676 1.284070112228038 0.3986079874030259
H 1.1441521962667471 -1.2249740601185308 -0.6474728216406541
H 1.0066910852158166 0.48664739989039085 -1.0817366009488292
H 0.7187868746674394 -0.03603406011854523 0.5889485993081807
H 3.2619121987295765 -2.0955377084323654 0.6412971231804434
H 4.336110198026413 -0.8056354069873866 1.3862589835213126
H 3.855856303282143 -1.125575787278482 -1.6688837875125513
H 3.7000905033308635 2.096897028498414 -1.4121700947492268
H 4.8074650122170715 2.4030186780456946 -0.023499356534729957