17

C 1.4541223953479752 0.35571403372349414 -0.11272394177387463
C 2.79818745230197 -0.27761770642091566 -0.009091831496502452
C 2.945762876345556 -1.780349711741929 0.06117018092149651
C 4.44557638042656 -2.029045705389797 -0.07152406533385705
C 4.987797892863065 -0.8545069140197247 -0.8901691135309621
C 4.0322910514650445 0.2637125887440319 -0.5785649120722645
O 3.7591063574517687 0.39005169707338017 0.8238581497020055
H 0.9080391508208658 -0.023756744743215322 -0.9758871672309759
H 1.548537497876584 1.4369890191311168 -0.20279489240049367
H 0.861692300600265 0.14359371595079784 0.7820410859853989
H 2.38971225954535 -2.226101508143542 -0.7724501605555713
H 2.5247060647752546 -2.196503838410447 0.9841550426888561
H 4.680425538519369 -2.9998994382026725 -0.5166184748069708
H 4.90501585352002 -2.014128216898255 0.9205503496025477
H 4.939488221243638 -1.063870572293504 -1.9649979940481435
H 6.030148925536326 -0.6162997546290062 -0.6540716089185019
H 4.060991026439509 1.1978035377658502 -1.1317689581979273