17

C 1.0733000963176493 -0.029604184497796768 -0.16717489584776557
C 2.563661850635642 0.016832422361801415 -0.1017664159327189
C 3.509913008485044 -0.43524216733826393 -1.2282456017829484
C 4.54316926910454 -0.2979043603051444 -0.08678768645331088
C 3.432756391400347 -0.826257695971268 0.8493307817908118
C 4.429558139090075 1.1972314738416563 0.19075411573509585
O 3.0112905344019034 1.3543723827683758 0.16845008470986986
H 0.726613899534326 -1.0460033783753528 -0.37023045287686984
H 0.706514930593595 0.6254705894353532 -0.9597018509744218
H 0.6392191645781974 0.29326601691907067 0.7717308655639891
H 3.6030691481384802 0.22086994128411883 -2.0942555447458013
H 3.3553123291470777 -1.4755899110606336 -1.5261969618995679
H 5.537880701582231 -0.7321503379143253 -0.1235943450097958
H 3.452214101289266 -0.5258930896827141 1.9036770793158755
H 3.2643296229429644 -1.8977813014411016 0.7467024919289829
H 4.896073989444968 1.817349884773313 -0.5810340665415706
H 4.829473171078063 1.4898573195407727 1.1677335218054055