15

C 1.0831711963558124 0.14228948416262385 -0.48758923036714735
C 2.22447815781995 0.02079444481524687 0.45194245973486796
C 2.6053988103101715 -1.2708255089204656 1.230251109605482
C 3.9469327177860065 -0.5187681771524171 1.1537031589648101
O 3.5485879399536757 -0.04893670986389319 -0.16007610051439874
C 3.6497964917407493 0.7116037917981182 2.0213984527405913
C 2.4700417850766154 1.081553110122583 1.5401728061678994
H 1.077143969578661 -0.6890948040143091 -1.2013010292088335
H 1.1573819671753547 1.0794904995274288 -1.0524183764167985
H 0.13648332990251552 0.13998752530190656 0.052861943385888475
H 2.5848982413371764 -2.161629832448239 0.584344492972882
H 2.1522502129182066 -1.4578937165651153 2.208244693568054
H 4.920069341996457 -0.9942013498429215 1.2003175079064472
H 4.2661061732874765 1.1333038439785885 2.8087597951689363
H 1.8191390740001916 1.8948150694933408 1.8152049305854836