17

C 1.3643884073845818 -0.14468577241372396 -0.30629885439809607
C 2.793990821357946 0.17574405126010625 0.044269028289881204
C 3.6948938333397896 -0.9008889610822985 0.5989485843400335
C 3.9570513029193615 -0.31797257814829644 -0.7575490171582901
O 4.942747019341922 0.6599325558816374 -0.8181069821395895
C 4.330623358784309 1.9076413771581064 -0.5137385810169298
C 3.1669161915917496 1.5964324190386252 0.4252820393838525
H 1.2723473600804727 -1.1689149755753818 -0.6786202306556844
H 0.9795169806315872 0.5388003119565438 -1.0650137471049292
H 0.7190282794347389 -0.05861626364385357 0.5790683621974065
H 3.2956545122091416 -1.9145342751838157 0.6450364076664903
H 4.395554479394711 -0.6380841821826037 1.3805781844422091
H 3.844147977754062 -0.9145232581508578 -1.6587623499752047
H 3.96449459473106 2.375837041711103 -1.4469715720116927
H 5.090678894073164 2.5660839939055924 -0.08368020610690512
H 2.3292078765963895 2.280585457615561 0.2694958390010369
H 3.4669943234791263 1.6750854181904833 1.471888397467817