17

C 1.4444896233082842 -0.22136207496870422 -0.45902454795968056
C 2.8406865410330497 -0.0022352048343304964 0.03034612089976287
C 3.64798491676924 -1.1117078048252627 0.630022601819528
C 4.065450718751755 -0.5018376318355944 -0.6726588574409162
C 5.080510335947671 0.5967104420185506 -0.5769950341342873
O 4.641597674139379 1.4234743587285978 0.4924631069923557
C 3.228962013829568 1.3799581604931588 0.5222570730331453
H 1.3190593232209418 -1.224409244376591 -0.8644213045724514
H 1.1806547147969886 0.5007095153287031 -1.2396011782792853
H 0.7100638065067001 -0.09546933823192641 0.3523587143281984
H 3.2117611945729707 -2.105907038656938 0.5960323751549352
H 4.249043717167753 -0.9086005325404976 1.5004331415820522
H 3.992635554200132 -1.0762826468605708 -1.5920558843978498
H 5.122230185463628 1.1644482275741725 -1.5210308222566615
H 6.09012819808859 0.263901938154755 -0.32858085856475483
H 2.794534742696692 2.1354293284080583 -0.1429982659016684
H 2.9221681233191084 1.594584240082234 1.54893222263827