15

C 0.9206259078440948 0.0010428085380439576 -0.14493325311025
C 2.386189270603802 0.1989036509852449 0.09940931323280375
C 3.490391555617857 -0.6821464459090599 -0.5612040913694898
O 4.4167454811544955 0.42118891526658137 -0.32147241239718505
C 3.2611919958202895 1.2228898902548988 -0.6842442792467771
C 3.04374201815446 0.8005345168750717 -2.1419695253664597
C 3.207518845816668 -0.5146166347753741 -2.047719996842324
H 0.5585609295622689 -0.8936880353561372 0.37131880665908823
H 0.6824787099344228 -0.09914628686451167 -1.2000833758701952
H 0.35337781507593286 0.844467268146937 0.2554054154247302
H 2.613714924357482 0.29671800140018706 1.1601022936090761
H 3.813595141320705 -1.6497036680296087 -0.17023800670406272
H 3.3419236002805466 2.274225411605551 -0.4264062154468579
H 2.8164283226532567 1.4304535289558493 -2.9868953039156008
H 3.151131550621879 -1.2894136857674718 -2.807514103494329