19

C 0.7968964924631443 -0.4973721074149205 -0.9275678335507714
C 1.7398989530129563 0.5840127707753863 -0.4931432477422518
C 3.17953821948343 0.29269799571771293 -0.15784707145016807
C 2.845203822889543 1.1129597261862063 -1.3705383238129891
C 3.0827545601016006 0.5293826862619903 -2.740108265561678
C 3.168029040275495 2.592199655334236 -1.340164110217074
O 2.9865112197848616 3.2194000922867185 -0.08488011471568435
H 0.3475093377939325 -0.9876978722899503 -0.05354600713239639
H 1.2959808606445835 -1.2798891278959434 -1.5023156057485254
H -0.016709112527417514 -0.09865624385505195 -1.536567235915263
H 1.28833110354166 1.330331217872271 0.15555214211605692
H 3.532936675409457 -0.724426491655875 -0.32100387588725543
H 3.609571731906959 0.805715510447981 0.6948439462417797
H 2.9244835970150596 -0.5559678285399083 -2.7543285660449026
H 4.106133599846527 0.7114597914725223 -3.066064046960785
H 2.4103743655952212 0.9802523699483742 -3.4778395764950925
H 2.581032758852766 3.1039163837058834 -2.117942418238303
H 4.220227434504606 2.7258000550668293 -1.58880266326953
H 2.0452008556884453 3.329279632714758 0.07015272139004684