15

C 0.7721175229364534 -0.24892108659776016 -0.37439317461084365
C 2.258455612632942 -0.21323035922933622 -0.12640975503772572
C 3.2173373872224404 -0.9163861059308488 -1.0511389877039998
C 3.1472336703459023 0.5709264528482376 -1.0036655011509201
O 4.194577054720059 1.2694971642168842 -0.36496583270942645
C 5.085763449110142 1.8575245594276244 -1.1672568830081094
O 5.066266375663126 1.8705497048834538 -2.362777023330844
H 0.33046068314786003 -1.1599715634138814 0.025052358101653013
H 0.5586779773942375 -0.2171227529981836 -1.438404808636383
H 0.27117368916695334 0.605909802971423 0.10345171388936886
H 2.556378181408244 -0.2154262204979221 0.9180588099891208
H 2.8256846343017155 -1.4045196668217332 -1.9338727521701589
H 4.091046159775688 -1.3724873842064753 -0.6148887200065478
H 2.736952390041149 1.1073951274639275 -1.853786601848964
H 5.849764846835161 2.349886684396818 -0.5402985161552513