15

C 1.0781468510621501 -0.025698754903080923 -0.3204743070685288
C 2.5059708991993124 0.15399693275843143 0.01971260753422033
C 3.257815303009206 1.2578819185279282 0.15450765382721518
C 4.647981775100213 0.8659865665830452 0.4412771893735335
C 5.300186863939322 0.018086730415782837 -0.6343384518637651
C 4.547740098271681 -0.6458503568221293 0.46662782259069185
O 3.202586767092729 -0.9990891247783487 0.2435675543742887
H 0.5863609335873478 0.9360504034043826 -0.40892767730066976
H 0.5773186694161593 -0.6156940690316424 0.44616173126167646
H 0.9755970882366657 -0.569620168323149 -1.2659934390485021
H 2.891176308395693 2.2713053803523673 0.05754434614053787
H 5.26858012948217 1.4309880107085418 1.1278753591755184
H 6.3853675380350055 -0.0976962791427103 -0.5911980037823164
H 4.870396345346055 0.029812465515480037 -1.6185504273535567
H 5.034276992542827 -1.2885286329018606 1.1833986955656286