17

C 0.8359846722683208 -0.0701576538005559 0.03830627794170608
C 2.350765812006947 -0.00610770137571622 -0.00875134139360404
C 3.0763577720466992 1.0752299432032917 0.8129163701506787
C 4.0967591881535625 0.021037357235880436 1.2593576887071765
C 3.1307565070063292 -1.0799733016386164 0.7935799497303888
C 2.8082311216377986 -0.054228631656824594 -1.4462134208019228
O 3.5623819973775337 0.7129432595403704 -1.9700733964308188
H 0.48806164437612276 -0.14337343974888314 1.0680662530822291
H 0.45258922612415436 -0.9468749132621054 -0.5056754128081192
H 0.377782804085156 0.8218806955520347 -0.4078869548169409
H 2.449376847183935 1.432940713291742 1.6330673660212545
H 3.4561934667137604 1.9299323392990908 0.24782737686366138
H 4.378135500377615 0.01108994857271367 2.3099174076595004
H 5.002862475890419 0.0489813593669221 0.6547253612186764
H 2.517885104094742 -1.4817893631007304 1.6025175893658286
H 3.543239489233637 -1.9277839519689872 0.22861072291752044
H 2.394119377864765 -0.9163931648787724 -2.013065531099149