19

C 0.5512217852037045 0.16542107710786844 -0.5856906548710563
C 1.9451439267304522 0.4512714791192637 -0.10072701917390195
C 3.168239240265296 -0.3286496901879711 -0.556830832752084
C 3.0936847217118033 -1.4654274383788686 -1.5400896450724904
C 2.9862142686136575 1.1193524995278537 -0.9295795519255626
C 2.730036740321032 1.5455949912143594 -2.352342953945755
O 3.7641167157607662 2.0440670779794377 -0.21564177858900518
H 0.09491481674156113 -0.6362453713507864 0.010681122672933252
H 0.5259121274438507 -0.1471480600500496 -1.6257822756111178
H -0.07831072471853809 1.0461286854016856 -0.4848166910992587
H 1.9949526214404736 0.756050107397917 0.9400240810750268
H 3.9051676096125116 -0.47506636177035677 0.22898883466313888
H 2.330328003701257 -1.3118199662217105 -2.3009047856649674
H 2.85265782460575 -2.406959564945346 -1.0340805385319445
H 4.048048527505208 -1.6010531339480267 -2.0574635704392352
H 2.0907677505894022 0.8445693616914168 -2.891142002623196
H 3.663330032640534 1.6343796514063058 -2.9003364569034673
H 2.238868684499359 2.522243323557406 -2.3596776229262675
H 4.6468137407575485 2.047674345331804 -0.5792628308958981