19

C 0.846687886111277 -0.032503258800344534 -0.04879830726397827
C 2.3535277050553813 -0.01803692576393381 0.08870279938370872
C 3.0495440362536455 1.0221223284497862 0.9852735125299743
C 4.110015318482651 -0.03761463913793982 1.3402744129502688
C 3.1070175513087905 -1.122877356287562 0.8852660689500783
C 2.3203822784046286 -1.701203502354924 2.0446942885569515
O 3.5940719290143326 -2.2213343448270764 0.15502565396998266
H 0.5005408344759713 0.8473713138709463 -0.5909646031195639
H 0.35732631761422756 -0.04491074102058164 0.9280943576433607
H 0.5118266137354344 -0.9161272086591774 -0.6010283975702895
H 2.817024833982745 0.018146423302503475 -0.9010664409606444
H 2.4332021602029 1.2820919373862474 1.8522728114473803
H 3.395851945831379 1.945440241700917 0.5160669900773033
H 4.4800308754603115 -0.09039366099919335 2.3680365989143413
H 4.9580888355980015 0.0011936738096797305 0.6524456738680875
H 1.909418021827959 -0.9195879636652248 2.679012152710584
H 2.9725842885729654 -2.3393630098894262 2.643511723872601
H 1.4921879530769986 -2.3187996858044286 1.6737298066649788
H 4.109417822177507 -1.8843158438641965 -0.5779999977318018