13

C 0.9999121134164405 -0.04220971464988613 -0.12292143929401154
C 2.308004059386407 -0.10946645524098889 0.12874977699653772
C 3.1865441308605456 -1.2615568639044827 0.2733821853903078
C 4.442831638898771 -0.8819005851273104 0.5159648209260874
C 4.595241139912364 0.6020390093499441 0.568594872238864
C 3.17484741954297 1.0967308541702867 0.30034309144144605
O 2.8216214886456004 2.2515961159136455 0.25081060716563874
H 0.39261257676069705 -0.9329381467540199 -0.24883140393688194
H 0.5246806635320354 0.9241978069661991 -0.19366655043842496
H 2.847347541585453 -2.284559978936331 0.20107741342939528
H 5.281779813822315 -1.5609325113231338 0.6683360173232078
H 5.2754428121347035 0.9988977790899187 -0.19217183168231117
H 4.95244671699126 0.9744252264472976 1.5307571733722845