15

C 0.9997361027341696 -0.07218528033133804 0.2709764650564769
C 2.309096701842534 0.01644635656621093 0.07502520335522657
C 3.197938665350164 1.2154277123211745 0.05413037421076321
C 4.393045945572049 0.7735604632715979 -0.805972485122472
C 4.547440623037122 -0.705796397516846 -0.509695112567803
C 3.1424299319488296 -1.196488534910644 -0.23550293756699128
O 2.7561754208091735 -2.3293815089514536 -0.26375612458540637
H 0.3811633652437378 0.8082048959887428 0.4672090244113804
H 0.5102328584939783 -1.0403218248266894 0.231344036945702
H 3.530774867146375 1.4406120676535008 1.066773474139364
H 2.7003851515735633 2.118138271678628 -0.3299473202038445
H 5.296020508588206 1.3560724213690478 -0.5925180643967178
H 4.158367630604452 0.9218875681815406 -1.8649627652017304
H 5.123744651645645 -0.8657550153108443 0.4190491827881797
H 5.026663484918543 -1.3035465044705026 -1.2847735406679903