15

C 0.9614878057788554 0.0074625516855260435 -0.11984718551092403
C 2.4392513874247044 0.027953679209126895 -0.09026614065388618
C 3.2842794650663367 1.0613014693331888 0.013975354549129404
C 4.674475594548953 0.5793141132278453 -0.03920063463656909
C 4.676007091661364 -0.7559747191356486 -0.17050077605721595
C 3.257115865882258 -1.24997173809964 -0.15822235900049558
O 2.898256615606675 -2.1447414277544365 -1.1897884572015667
H 0.5448435676318899 1.0227918603212696 -0.15126399805321664
H 0.5504965215172635 -0.48838116216498684 0.7635337581562728
H 0.5942634530625223 -0.5462991084239068 -0.9894386608889733
H 3.0003412318647356 2.0982318129807913 0.11093645746000667
H 5.545653106659262 1.2163153212190505 0.04000392205708148
H 5.541806505982382 -1.410404192770149 -0.22855195372424766
H 3.094407667073428 -1.8035310090981223 0.778923622052091
H 3.125182971582945 -1.7310250431163086 -2.021769378271962