15

C 0.9930387162588964 0.12692727890475644 0.0563310050633605
C 2.46778885167356 0.06982862882515903 -0.04121294632605816
C 3.2792631007340414 -0.9891724361738632 -0.06828450645041856
C 4.7295978720597756 -0.6492642928543579 -0.1834700023246961
C 4.744505071240997 0.882881003756725 -0.2312296729223574
C 3.292321168656436 1.3024115467004884 -0.14364267711027717
O 2.8680371666516153 2.428909267569635 -0.15836245058328902
H 0.5471668834870047 -0.866967096328106 0.12689068545597496
H 0.5663896043485275 0.6470375437265576 -0.8083485032642678
H 0.6959783201587241 0.7147115862183806 0.937580991056772
H 2.940205289932614 -2.017062651913451 -0.002985884506123678
H 5.172948630018622 -1.1088628965796055 -1.071055289600585
H 5.2933400681511396 -1.0401062081811896 0.6714032059765159
H 5.174218487685717 1.2787328174448696 -1.1587598130778678
H 5.29744605259084 1.3337291431518916 0.5860451095734375