19

C 0.8960296087999339 -0.15401722388822836 0.029810307990662036
C 2.408248562720397 -0.047239410073876775 -0.09740699986043153
C 2.815323169973863 0.06538840890238493 -1.5577484279994531
C 3.119292874624287 1.0213081101539088 0.7688005958397466
C 4.231600291013241 -0.0122004838682923 1.0805299534070252
C 3.239726605785228 -1.104260465140824 0.6549605403262128
O 3.687298731501368 -2.1868710565830307 -0.12598375446898186
H 0.4037440449238116 0.7237833351374837 -0.3965212631378968
H 0.60170787306753 -0.221926362855597 1.0800034206511135
H 0.5262577350255532 -1.0440709256811933 -0.4864340581278158
H 2.353196277853916 0.9576797798346516 -2.003314834928533
H 2.4919779498851957 -0.804544445586154 -2.1299174655876794
H 3.8959441919217404 0.1576522437918518 -1.6762796924711072
H 2.538175105263955 1.2686004972026834 1.6617040123562523
H 3.414162688609872 1.9398915963225727 0.27631989835246523
H 4.630613664622644 -0.04979740941133662 2.088478024514937
H 5.050360894037473 0.05992062180408978 0.3656673340663131
H 2.670032859296804 -1.4641228498873275 1.5206862803514098
H 4.152723927283473 -2.8050602562730655 0.4462209226440731