17

C 1.0653975390677113 -0.05071134000089776 0.2680210175158985
C 2.5565379810600426 0.03918761963053843 -0.025637274439685123
C 2.8329511791873143 0.048774976482877916 -1.5193324608191188
C 3.3224747406611774 1.1176483971769247 0.7944605219493064
C 4.132232204458914 0.032857449243087436 1.5348393895054755
C 3.3710655491060164 -1.010737204159593 0.7309970565958109
O 3.402594149754293 -2.211278903673564 0.6867226729334702
H 0.5374965729819912 0.7937336752012664 -0.16936795727631124
H 0.8666779717140068 -0.06500844083936555 1.3416977137373822
H 0.6481737032669602 -0.9692783072539792 -0.16158242238792037
H 2.34895963028846 0.8996559558651082 -1.997113631827645
H 2.4562462804467398 -0.870155778689119 -1.981460663475125
H 3.909660532744971 0.10604814013866659 -1.7275748236768003
H 2.6820065897149337 1.7224889444370328 1.44821397640403
H 3.926331769421699 1.7970108489105112 0.18709396552627267
H 3.9754420296162625 -0.050186195999856735 2.6113587685472286
H 5.210745932139634 0.02660406350497852 1.3475582161917847