19

C 0.9590870732171535 -0.02659939280740204 -0.1337337773696219
C 2.461803434383643 0.04002209727298963 -0.08847937469993632
C 3.1549412924990095 1.0748785597834019 0.834406116619617
C 4.24026784735779 0.024058679557759064 1.1589560940861645
C 5.492040617676885 0.15091243214634587 0.30552512782679725
C 3.2480977686146635 -1.0424442826374292 0.675808421625259
O 3.8084387284689165 -2.1197551508079564 -0.024925282456310593
H 0.5287809092883846 0.8791295505378114 -0.59314696436907
H 0.5287791043158552 -0.11527216319514674 0.8659056591594129
H 0.6154451035266953 -0.8764808235833484 -0.7279629134632555
H 2.8827068960725133 0.10896299177917623 -1.0915301034537848
H 2.532318709331129 1.3182662974615518 1.70522200767652
H 3.487710441822714 2.004710132030405 0.37639964632143535
H 4.523883066726868 -0.056649929882924124 2.2168784312867436
H 5.252329020159716 0.24848152928877795 -0.7497244781334867
H 6.119834872074563 -0.7386291619222817 0.4177376633624549
H 6.068125023937632 1.0283181631958025 0.6097288425220908
H 2.6432523255931524 -1.4080355404187368 1.5292066609159187
H 3.116760501196743 -2.7663204625142988 -0.21233895102275563