17

C 0.913514202013305 -0.008047370075502776 0.3913928443268836
C 2.3568617935612868 0.10115746032272245 -0.037811500231270924
C 3.254848290595279 1.1642848041978522 0.6490995034730742
C 4.209810797500002 0.055468035558944674 1.1957072315169865
C 5.6587903933137245 0.07132107453522606 0.7465826959379989
C 3.3023117897437513 -0.96633791774149 0.5033595980416817
O 3.3311788329226446 -2.1646233579235523 0.43361675081659834
H 0.33519406875726676 0.8434107086407707 0.034131386130525854
H 0.8225770730433233 -0.047246875939048825 1.4764266021695482
H 0.4577041158232494 -0.9205866146072436 -0.019536910741575347
H 2.421678999947648 0.1334607901275569 -1.133429568281382
H 2.745592902128462 1.728806568829265 1.4297617701621685
H 3.738500884421695 1.8609256059533799 -0.03918040414284113
H 4.1507972413401735 -0.06265157215103853 2.2840032431217367
H 5.732571951000917 0.1846562702612943 -0.334543149117141
H 6.148732105081716 -0.8642571983146067 1.0207068624510383
H 6.196549081616161 0.8975668698468431 1.213898552592583