19

C 0.8948635077849539 0.12686131754100735 0.061759151363212236
C 2.405045958688757 0.05537613699038598 -0.13397048581941867
C 2.9075787198024305 -1.3481725306800327 -0.45742677079551464
C 2.5877594056305617 -1.7526851963062122 -1.8955487768769197
C 3.0822705364587355 -0.6770854983233372 -2.84944089125066
C 2.535175589949484 0.6801932729357311 -2.430208825066997
O 2.8647072356505374 0.9867393422942131 -1.0900621138310633
H 0.60048648721608 -0.4745483167442992 0.9216677591670535
H 0.3370769530118105 -0.24378157519536445 -0.8010966279662616
H 0.5891116565367106 1.1638016239420408 0.23824767067591907
H 2.870631863621217 0.38405348741499823 0.8002425746187948
H 2.4897619302662046 -2.069693229821661 0.2544194554639781
H 3.9933374610270684 -1.3596745552738692 -0.31619794108564087
H 1.5045079319891885 -1.8817463807614523 -2.0136142653107436
H 3.0387791302724256 -2.723856109140836 -2.1282483373211885
H 2.7796566587514127 -0.8898090765581573 -3.878844207031874
H 4.171491086133297 -0.6427838908859356 -2.825968316077821
H 1.4430843237161624 0.6979970781307311 -2.572167618120026
H 2.964454554518102 1.480976141227015 -3.0343800465750856