15

C 1.1709121411276917 -0.07460698778452703 0.25368295787613315
C 2.4310630423967168 0.12786263376183535 -0.0906606623744609
C 3.1849869764989975 1.427128002931289 -0.2086857275815891
C 4.596812482770734 1.0068386259404436 -0.6409527193007546
C 4.526414626346563 -0.4944534220498093 -0.7152880888524895
C 5.471240296796757 -1.358286976981596 -1.0417022764570147
O 3.261988653828307 -0.9084382978901925 -0.3833471392398994
H 0.5316458556565032 0.7671102795690732 0.48639514154110663
H 0.7565959607192955 -1.0700647968789359 0.31061238304929295
H 3.1832418491757215 1.9657092424888782 0.736658683234213
H 2.710360338460724 2.0772566178197795 -0.9489245628424356
H 5.351570992233382 1.319301931976088 0.08496942406133294
H 4.875193543074048 1.4240162833342405 -1.6049503658860984
H 6.459320049416217 -1.001371070866841 -1.2987713927364755
H 5.276305186389892 -2.4165635271256076 -1.0586754271435073