15

C 0.9251386335077325 -0.12866167548293506 -0.024620626249705808
C 2.396084074224494 0.052331891032902554 -0.12096148882399815
C 3.04364234199591 1.2202942344354049 -0.09202380392701791
C 4.5298434520771025 1.3370481883586869 -0.1935131177225529
C 5.130867344859714 -0.019327667682207485 -0.32673707271680275
C 4.389206677529806 -1.127482335260995 -0.33687279849193263
O 3.0328484782823586 -1.1579951746468524 -0.24046444968341354
H 0.4212085729088539 0.8299572665479389 0.07786458815834565
H 0.673020690270508 -0.7523154362920916 0.8471232365002256
H 0.547780231688974 -0.6451886215066721 -0.9057468269911716
H 2.445414910808883 2.121746997221698 0.006691020084650789
H 4.9362366632899555 1.8567743955164866 0.6847432653809138
H 4.8118162888644465 1.9644579857753133 -1.0517684195012482
H 6.210759121930119 -0.13921014936153636 -0.40405921384029564
H 4.802346721521527 -2.119960674401349 -0.42809304572611184