19

C 1.1774585647415985 -0.1863427834298647 0.17777153883424526
C 2.6640822086629394 -0.012205674537811607 -0.031072655640647002
C 2.9903512497355127 0.15848200018577902 -1.5082797928749478
C 3.2492374527236634 1.1341236192962567 0.8142813493955687
C 4.5691423280337355 0.5616080420050381 1.315533430005079
C 4.198717680581204 -0.8984150180498056 1.5040721877840781
O 3.338279018669147 -1.1990906004007973 0.4168415868312109
H 0.6232635173842151 0.715086447653343 -0.12153787050782884
H 0.9625325712370836 -0.37792580989766 1.2334641933812478
H 0.7981939529132129 -1.0263155978868832 -0.41107268577308126
H 2.43190893266676 0.9957818465052107 -1.9378518778234621
H 2.718294731586378 -0.7483456880191452 -2.0503077738769244
H 4.050413469902751 0.33213158820802396 -1.6582916773650587
H 2.587919222845557 1.3492846996531156 1.6547714646368297
H 3.3660420412980256 2.050811916503791 0.24144745708633147
H 4.920475495372748 1.0315588121192825 2.2352251453950185
H 5.357477304000419 0.6654619235272633 0.5596310417855316
H 3.689522974461947 -1.048317917664252 2.464263119309533
H 5.048303671278377 -1.5739939382468195 1.46231423366123