17

C 0.8101648162741185 -0.13348404573133316 0.006319352061455227
C 2.317935410916305 -0.13627137050067256 -0.10759359336086945
C 2.9955831944709543 0.034384131957788076 1.2291507355456242
C 2.8469542650199386 -1.360164817443243 -0.8977518911778457
C 3.474343355439948 -0.7347647735666645 -2.102749710860332
C 3.3309359047969167 0.5844946342374555 -2.018282977863394
O 2.6876202532344666 1.0331131175399233 -0.920635114341757
H 0.4724614767398269 -0.9778236700436319 0.6183501892912673
H 0.3504637072137654 -0.21164781655896603 -0.9817722359720994
H 0.4660256231676475 0.7893236311089952 0.47838934402841904
H 2.756880467683221 -0.8034858299059171 1.8840985477206786
H 2.6765048808891843 0.9538372336026075 1.7190840161982293
H 4.07903551930327 0.07325394244461035 1.1077031468228251
H 2.029845203979704 -2.051743451937678 -1.1469456436679604
H 3.563017270396405 -1.9294727103802731 -0.29328212197773273
H 3.9587355083005638 -1.2700682923361721 -2.907960651288297
H 3.6518359769924 1.3527591255445237 -2.69859112493341