17

C 0.9137336235864149 0.001612837378719225 0.09152084066847829
C 2.4253544391393826 0.01969699682561553 0.12285432618934469
C 3.067065364187677 1.2796229583735086 0.715971035680662
C 4.374445643960243 0.7571785466957348 1.2429343175802376
C 5.443421607314762 1.460103610732882 1.5835203476688098
C 4.238383517660274 -0.7397020501074011 1.2764860842053551
O 2.88431597735827 -1.024409946547377 0.9711129884045435
H 0.5403259470689823 0.8038704787918336 -0.5509034002599777
H 0.5209017303356521 0.1588226685256035 1.0962776526443336
H 0.5478548264019278 -0.9526539261657923 -0.2811765731366032
H 2.820555337860167 -0.13435690004064602 -0.895455959508635
H 2.4381962260190453 1.6525356189268292 1.5332339909072579
H 3.1825432182076825 2.0917527896493846 -0.014439343020277901
H 5.464383135103099 2.539687595741574 1.5087505956350555
H 6.340914684145004 0.9691995295999333 1.9608052243012557
H 4.463718660034347 -1.1790791194410517 2.260603717712827
H 4.902734204289789 -1.202604458507718 0.5357460654637227