15

C 1.0250805147817421 -0.08817623819815594 0.4473618107026975
C 2.2877665728333136 -0.06712324573934937 0.05370405643236985
C 3.099424651620721 1.2111874707619652 -0.15255727356456697
C 4.496437396583034 0.7717789846242658 -0.6094364801106573
C 4.493673627151768 -0.743197068172169 -0.6546052787548164
O 5.439594489266269 -1.4221877479925684 -0.9671338553197465
C 3.1315313450156013 -1.263162573279257 -0.24311883620282054
H 0.4712990898263655 0.8235853691192122 0.65291223116705
H 0.4848088590567471 -1.0236733068025852 0.5872017238723599
H 3.1318644051925775 1.7912090548915869 0.7691643447229541
H 2.6069068551668226 1.8465855896594638 -0.8983607185751225
H 5.291147590722712 1.1002300763249895 0.06682656117753055
H 4.768388781307763 1.1504359266191992 -1.5924608737550423
H 3.257997681268993 -1.9299866324121404 0.6196882360541834
H 2.736215552559176 -1.8824352257212131 -1.050790343122721