17

C 0.887144226976686 0.033835982341883154 -0.007379926123279013
C 2.3614110729433095 -0.09070357242662776 -0.006636809126706694
C 3.128091472781839 -1.1733670807450138 -0.08603569881312927
C 2.7303980927700957 -2.6001456105203937 -0.20126904595105521
C 4.5658909540989825 -0.7637716487709276 -0.055643582509963575
O 4.570157485372552 0.6405364453509004 0.056100693563974756
C 3.242292312346717 1.1217134407403657 0.07936595331047486
H 0.39385433050767543 -0.9297254914137806 -0.0777831541453991
H 0.5363969509908619 0.6522604644943746 -0.8363737629843605
H 0.5327831114219066 0.5294476502832477 0.9059807439990918
H 1.6544233976302127 -2.729756909627861 -0.2128911158677211
H 3.132567954895676 -3.187333869806556 0.645884469721908
H 3.136042576267545 -3.0516153089955513 -1.107786131583636
H 5.105698733321486 -1.0755621976950889 -0.9644871880149164
H 5.098019378197291 -1.210189892005952 0.8009651282731703
H 3.0768035875872357 1.8172428985632891 -0.7547159479478066
H 3.067279343565137 1.6837742762613512 1.014647856862786