15

C 1.0576343828897734 0.013014593722501397 0.14343182835939572
C 2.541452321769258 -0.012587562433664096 0.0525227434876387
C 3.3288754292833804 -1.0896709570879146 -0.012863821878721326
C 4.783402851429023 -0.7617312826204882 -0.089574147644183
C 4.799117330836824 0.7633368196262023 -0.06653128584932526
O 5.777848158552356 1.451538881467139 -0.10801081356623911
C 3.3600390400696374 1.2511945851750466 0.030649154862218433
H 0.641422099467396 -0.9910286265774687 0.14852384604155774
H 0.6243493151399248 0.5591362208086695 -0.7067907664346177
H 0.7269354751140853 0.529649209995099 1.051648886288643
H 2.948221626609179 -2.1054045304386886 -0.002289728391250619
H 5.268123121952895 -1.1171010516432187 -0.9977775121025457
H 5.3727935383851575 -1.1558124299347505 0.7522209828418798
H 3.1265446625925377 1.9019440177696343 -0.821934132629826
H 3.2348496041471457 1.8711367665790417 0.92387917694851