19

C 0.9949756932998989 0.0792103422866093 0.687138645526669
C 2.265784130945791 0.16389802994542413 -0.13550561385105556
C 3.2815248811084436 1.2010385179498957 0.3900987627724425
C 4.065904110630278 0.05976742971194715 1.0651237829303806
C 5.563478933894531 0.0921116415081055 0.9672739118063535
O 6.077515576468527 -1.0893917254667458 1.5422911233972134
C 3.296596572297779 -0.9474103813127563 0.17288110259078548
H 0.37520156281113953 0.9688842823486583 0.5615107976781001
H 1.2166035908949056 -0.0337857725470249 1.7473935651992798
H 0.39500222537928414 -0.7856443761555326 0.38508726622681566
H 2.0067689881955073 0.27366172528620536 -1.2000377949684147
H 2.889618616395014 1.9964730069860468 1.028172170887663
H 3.8523751819533096 1.6577346843022183 -0.42248570345041814
H 3.776042198362942 -0.05910461887167159 2.111640973240323
H 5.936030756872571 0.9826161512558536 1.489429078374946
H 5.8600179383923034 0.18108780446578587 -0.08497878045451349
H 7.034088580216715 -1.0789650851689996 1.4578867041328576
H 2.9189773789000713 -1.8525084375853025 0.6426257701434243
H 3.886097159090761 -1.2266389065425642 -0.7067994002736893