13

C 0.9415297715908006 0.0026628831011163367 -0.012447510212179658
C 2.4119164394542527 0.19201108417506388 -0.01309916962305874
C 3.2227729063490598 1.262309510294823 -0.012663916683327489
C 4.571670494089327 0.7749735212395428 -0.0029825865295976368
C 4.452031172097498 -0.5704876521264002 -0.003911261101009881
O 5.318388027805409 -1.5977532371186207 0.008073433987662785
O 3.171713088643445 -0.9587377410940859 -0.005564535276086538
H 0.45495479339167383 0.9716908399659602 -0.020622945440801583
H 0.601842498531086 -0.5472078389686572 0.8714651132203537
H 0.6123074570769368 -0.5526367505909935 -0.8982510300883244
H 2.913523758333104 2.2956615784257273 -0.013425845821637732
H 5.491183385010782 1.3482974970485733 -0.005005161431172264
H 6.207950646528302 -1.2465942304955462 0.013750315565895975