13

C 1.0809485804160714 0.16526975495414895 -0.06148187784155605
C 2.5384315680951697 -0.028507837818635945 -0.12175302459195214
C 3.3090659794137327 -1.107905582540941 -0.07938182442345053
C 4.733008629896368 -0.67896426343514 -0.18799626294682692
C 4.605710270328 0.8287463651090339 -0.2922366519763384
O 5.450935613830988 1.6538917431279563 -0.40142441178398464
O 3.2657166117958476 1.1448033946436729 -0.25062071369145367
H 0.5717480087267177 -0.797299270629277 0.035512615719690326
H 0.7157250852946859 0.6583354640956124 -0.9760561085921089
H 0.8094844301151322 0.8012665950782057 0.7791923823089799
H 2.947665591354726 -2.120163489807458 0.017489753280669616
H 5.252338956627834 -1.0664678233565408 -1.0624475966103295
H 5.344037149818626 -0.9310500050100673 0.6836318453477153