15

C 1.041210783207705 -0.1334459734888154 0.11883007053302831
C 2.5451168747435995 -0.019513915986063935 0.11328369971169965
C 3.1190863294725397 1.1464672566675158 0.9077310933784767
C 4.460812330136961 0.605044367444583 1.3593845808025404
C 4.2345936873899515 -0.8924093595526216 1.41900438704111
O 4.9014164384002665 -1.7223273656053981 1.9619598353375667
O 3.1150719409533183 -1.1903215070662203 0.7228055002009244
H 0.6034274047353632 0.7478005851375507 -0.3431929341180972
H 0.6661226808102282 -0.20980441760122864 1.1467334946217929
H 0.7160257192959903 -1.0176462518612492 -0.4259389798652727
H 2.9159969001272 0.011885908140886841 -0.922376461675233
H 2.480336928310483 1.3474098371042678 1.7738866101418447
H 3.1802389554399095 2.0601558205175317 0.3131380732574002
H 4.822696513156038 0.9703913852110545 2.3141425703961116
H 5.246793808041941 0.7838830517379626 0.6208899805282199