17

C 1.0129562915949843 -0.05438310482805515 0.24122435646187396
C 2.4731600281661876 0.22622165087648 -0.062261030802877024
C 3.1665522089987586 1.2579122347841944 0.8519057999810639
C 4.079832374179574 0.09478286594080002 1.2367488214265805
O 3.3148706982968448 -0.8305982813087651 0.45450887051292505
C 2.688565782404589 0.3676899778012213 -1.530252558268061
C 2.918159078260722 1.4986678379543967 -2.1965177611343285
H 0.8833564681745559 -0.24409825244298433 1.3088190151532968
H 0.6818910890242365 -0.9451483528255482 -0.2994184516926241
H 0.38684506189613593 0.7926491291244028 -0.05766219768712998
H 2.52510312706182 1.6204248989205778 1.661277870327331
H 3.642053202107727 2.093910747580431 0.35644829804918476
H 4.09716756162704 -0.1803414763063244 2.2997962336755493
H 5.108979356586897 0.1863786378182585 0.8757856312572367
H 2.6223660584917083 -0.5734659838020852 -2.07812071567324
H 2.991825466802947 2.458576260243003 -1.6906220561113012
H 3.0406881551856593 1.4952673494039435 -3.2720873633963836