19

C 0.8337228230579402 -0.02444079467087662 -0.013654940476249615
C 2.3449879165203265 -0.009913677550054543 -0.06960925169330878
C 3.110872682462676 1.0902778281619045 0.6988729940303355
C 4.186175126488238 0.0445359315142484 1.0521472724686467
O 5.23517362256282 -0.018614495776939417 0.11894824912500745
C 3.1437124047482987 -1.055638947214835 0.7517990543552721
C 3.5853249570912293 -2.343257100908395 0.10366176363573927
H 0.40259510299062196 0.8352814895430832 -0.531358741648493
H 0.4767892265456453 0.00892505082308706 1.023829134589621
H 0.42844898745791765 -0.9318615346559169 -0.4751701710508147
H 2.68596579275653 -0.03649994794540308 -1.101367534239602
H 2.5670620833119235 1.4215408590028094 1.5849699238522368
H 3.4470978438321835 1.9682112747934064 0.1399321734026386
H 4.584255514541918 0.07152013656046993 2.0805865231959073
H 5.747461923046193 0.7893414879580104 0.1882514612982635
H 2.5951723540850398 -1.2574572279076743 1.673089329811738
H 4.184570874387462 -2.1422253693675173 -0.7864040764653561
H 2.710732762504419 -2.932193818123779 -0.19955050320683038
H 4.177951550460282 -2.954726829493959 0.7831019563657606