13

C 0.8246015584561596 0.03628655074579914 0.0333886987537254
C 2.3111576664636355 0.04878113101962641 0.039736785186113725
C 3.140031541311834 1.1304797519125491 0.03307927461546264
O 2.941135268138489 2.451830698657655 0.034908851648448376
O 4.428011075930354 0.7859986923163899 0.0316301950072716
C 4.458021649485975 -0.5817901295408417 0.037119504837298506
C 3.204827957645718 -1.0721104620548596 0.04370754117164266
H 0.3999857109901838 1.0477989465276123 0.03143658444108506
H 0.42661663635198854 -0.47152362880527693 0.922554954049725
H 0.41840244151932154 -0.4771217532348179 -0.844766095130594
H 1.9947839462418993 2.6258225058884936 0.032413451688681136
H 5.44664592910869 -1.0274939388157647 0.038009643406860784
H 2.9308035569251634 -2.119314162117695 0.04475729864853319