11

C 1.0712315991322747 0.10302563820431997 -0.1510172340395613
C 2.3903875445068086 -0.020006816334382498 -0.01835001552809776
C 3.2533318837657395 -1.1707672837555623 0.13174272128711306
C 4.502554620401956 -0.6906828835554542 0.22473004929252927
O 4.58832324817379 0.6732971106909508 0.15234297960276488
C 3.303504428060649 1.1627056035175116 0.0034056080160359808
O 3.078864236686147 2.323062803019946 -0.0813026142122619
H 0.41131997413792626 -0.7661410754318895 -0.16448265770927548
H 0.6321999008881607 1.0791258907903956 -0.24932190719752162
H 2.9668349914817203 -2.2126090801079457 0.15716020372990402
H 5.444296795386352 -1.1990161955667604 0.34692052578990673