13

C 1.018744755894179 -0.14820837219070385 0.3380575260959217
C 2.275148454427303 -0.012671489713581556 -0.049374118081255455
C 3.1105291602315637 1.223114308426011 -0.200141707747848
C 4.456310340301692 0.6771058744021842 -0.6857335869837937
O 4.337040145585451 -0.7479049595844245 -0.7755547403603003
C 3.1164640481557435 -1.1870746358302295 -0.42699740626476906
O 2.808870658945869 -2.339040212807649 -0.4360328554439976
H 0.3954496083061171 0.6942940528834884 0.6093596349177665
H 0.5909037834823 -1.142048450923185 0.387582596693424
H 3.2155841797032285 1.7590142057199734 0.7426850858596451
H 2.6743141462091766 1.9170260493886724 -0.9221896278770865
H 5.280966953797395 0.8901885609849207 -0.0015890346546706515
H 4.735003423825122 1.0483118039114512 -1.6756074993351213