15

C 0.8281038510794327 -0.13338625491519088 0.2806503942296543
C 2.329181134486765 -0.03529668164228295 0.1250838819269141
C 3.0987125555702053 1.0835104652431085 0.8682305345886182
C 4.187927700174982 0.038811956831058175 1.0749907016294382
O 5.377132370543254 0.05628270305083837 1.0523998305187356
C 3.2098302380847272 -1.093966654116207 0.8658707353803362
O 3.64480245399623 -2.2488120311838786 0.24316878160255662
H 0.3241392912442591 0.724452628965597 -0.18191239795241093
H 0.5524642458611986 -0.15055260966686693 1.3449667629689992
H 0.4449105240964532 -1.0389235631865097 -0.17892634101789787
H 2.615562215778962 -0.034141304417529994 -0.9294549049490082
H 2.6198271876573376 1.3579936184317638 1.815560615846032
H 3.3893517202074217 1.9794417735993761 0.3259197751796192
H 2.7038498283402923 -1.346230677778789 1.8092373785617397
H 4.561400734280772 -2.1173352854851153 -0.010490273385402699