13

C 1.047079135706181 -0.04789830845881997 0.026443684527924536
C 2.5218902551447497 -0.14727402505796308 0.027871841266311294
C 3.2943569037337586 -1.239232764905514 0.02901265716285636
C 4.720138574762298 -0.7981929233409801 0.035982114607057795
O 5.708511404421602 -1.4864913942698188 0.03699625820854858
C 4.6812678041661915 0.7072288237934378 0.029158154089946486
C 3.40321098529594 1.0652468926440493 0.03529691693442892
H 0.5716617384188547 -1.0333948349356703 0.028348144399628312
H 0.7025348179500212 0.5012806103468022 -0.8436394956283195
H 0.6939996260752354 0.5005997980974201 0.9037611048068627
H 2.991652385342 -2.276734819275712 0.03389033185146805
H 5.567555740072636 1.3347941849250395 0.03184547218841265
H 3.010749796021818 2.0801497229735797 0.03362224682075107