15

C 0.9976059760277289 0.1442006568570507 0.07568762719179899
C 2.4777458003704145 0.07357077267540162 -0.004532011067258255
C 3.2580520276555593 -1.0125409295415257 -0.08936951322456393
C 4.702492296503012 -0.6050558971620413 -0.06609378338584762
O 5.532145026251563 -1.1740303113254875 -1.055887946422981
C 4.625342961899508 0.8972177005261364 -0.0581301927962038
C 3.3423052013916914 1.2667747329536507 0.018787053837911905
H 0.5437951364611914 -0.851191157119562 0.002874750950943634
H 0.5915478542772168 0.7618653247368774 -0.7374871014097965
H 0.6690307121929792 0.5999112560804012 1.0062974628360482
H 2.9330230822379075 -2.0436644780881745 -0.11749801646989746
H 5.1388302701577855 -0.9232883817331546 0.8878063370428316
H 5.162578887368277 -0.9343947650005119 -1.9151573471825418
H 5.5027795774508865 1.534975380502444 -0.06649309554360908
H 2.9689691245621415 2.282008589603284 0.08352031938759709