15

C 0.8912828959595893 -0.13157938874376685 -0.012054152491566186
C 2.381123093520695 -0.0744303709301754 -0.014709980130148492
C 3.067405210895564 1.0707638293775308 -0.032092707594244485
C 4.555691181130296 1.1140386027938207 -0.04317243030149121
O 5.207251093941035 -0.16950277681372988 -0.03148320758396859
C 4.461657605395654 -1.2838629394667425 -0.01681090204818141
C 3.1233192427682464 -1.3222582049047438 -0.01260427670981101
H 0.44867059942025295 0.8655877910957492 -0.01278426922742668
H 0.5276503569324875 -0.6589420921720563 0.8758984750600958
H 0.5203856569749062 -0.6769220483657252 -0.8784310190344266
H 2.5654665307664217 2.0380250886050164 -0.034947186253838664
H 4.944486021745688 1.6617885768872436 0.8314555482998223
H 4.9318577265356485 1.6467561797141606 -0.927643600740403
H 5.092393081565208 -2.167329596973129 -0.010437936485381827
H 2.6172946567452424 -2.2755308776159615 0.0031033505652965933