15

C 0.8691553725636431 -0.05776280725600944 -0.3089975108946061
C 2.393563961006054 -0.052704091872175146 -0.1150961382752275
C 2.8545515213551345 1.1618710228177391 0.6291467030274108
C 3.508469554174533 1.0963463264365203 1.7876136359666925
O 3.87372123276151 -0.05178433577612375 2.412859159845838
C 3.5222129465912095 -1.2009728596478164 1.7779016686474738
C 2.862696852382751 -1.261811205501695 0.6203939614856334
H 0.543227668737553 0.8273406249917615 -0.8638480703444735
H 0.3643622726605959 -0.057420583322339326 0.6611020361304564
H 0.5492804313982486 -0.941964499693429 -0.8623671793078813
H 2.8371159598098754 -0.04092212989948722 -1.1186072330354049
H 2.6351883846981603 2.1474109481688677 0.2278770597074967
H 3.841424076996341 1.9628955323502415 2.336262399963544
H 3.8533808834060745 -2.075212590350175 2.328550574013359
H 2.654837564736017 -2.2413069458018695 0.21776673194583707