13

C 1.0392124106344869 -0.06454198525665951 0.08328270945238596
C 2.5014626902646238 0.08067417072790732 0.09596950673737797
C 3.3344051511652912 1.1541104098671093 0.09443863385356197
C 4.663304839557895 0.6365908946102178 0.10016517341808366
O 5.82858695801517 1.3239700924672646 0.1034057158477724
C 4.546669106034957 -0.7157676321152635 0.10349503456624894
O 3.2292428391018904 -1.0557592142402794 0.09662903795683071
H 0.5630184658820752 0.9214432091247532 0.08755376449613309
H 0.6837656595142927 -0.6040623810580941 0.9734317486413075
H 0.6939297241575577 -0.6108424665334022 -0.7980413292101846
H 3.0331642989093344 2.1936448038699776 0.09662176282300562
H 5.631557499479345 2.262340679661825 0.10135719740407519
H 5.267077462660248 -1.5153380172425193 0.10436409047155384