13

C 1.008459993133089 -0.07264497405428819 0.22866264766408914
C 2.2828302190981686 0.06045835539545062 -0.10108172317206013
C 3.0983554984675665 1.3154392784087074 -0.14068717807965034
C 4.470230036666611 0.8484352253464937 -0.5771534754194981
O 5.453601803677581 1.511306055096616 -0.7452831939473279
C 4.3715698143487804 -0.6515246728828615 -0.7550896218127445
O 3.04604804675803 -1.0212964405986016 -0.44827279474246545
H 0.42199957422378853 0.8003414091830084 0.49923665710101905
H 0.5281153193051193 -1.0440954236809479 0.2131587913841444
H 3.1747447198368004 1.8148414890048932 0.8304446135922081
H 2.719377398118067 2.055900698540968 -0.8567823251360449
H 5.078671544432872 -1.1679249575968391 -0.08705882727580233
H 4.617514586474231 -0.9222982862988846 -1.7814531848998971