17

C 0.8201800985431664 0.004856548993885216 0.2425131511038159
C 2.306442466738732 0.1226837213775223 -0.06677580976150292
C 3.016103069679687 1.1399930559056872 0.8408525662220483
O 3.5551447985428553 0.09891857510313538 1.6703929269260664
C 3.149705466573082 -0.8975017933657977 0.7254986848425204
C 2.537264077047499 0.1691375025067441 -1.5407857095339166
C 3.0603476172695516 1.1782815486445077 -2.23319632911641
H 0.6581915397904943 -0.09718386757464435 1.3203061135737106
H 0.3999433121174227 -0.8824636162539531 -0.24853556633534957
H 0.27449234619501317 0.8785098668613316 -0.11767549769771617
H 2.3761373474912992 1.8274131362497712 1.4054821612369408
H 3.822951207011002 1.7078538863420958 0.35563230246766564
H 2.5998106078460714 -1.7236427753991548 1.2014188577636722
H 4.006762770847262 -1.3021403647820915 0.1671684338006948
H 2.2222350612249593 -0.7155689941735721 -2.079271974006743
H 3.387318891867938 2.1023950862221588 -1.754585640884075
H 3.166994013114545 1.1162492372171868 -3.307562747644015