17

C 1.3757163277644981 -0.20517432634638963 0.3747762344983914
C 2.769528818379559 -0.11392775651381455 -0.18732526478943107
C 3.043652015860499 -0.501042365384598 -1.5944802722541949
O 1.9849569207651236 -0.9753353558415065 -2.34805569362781
C 3.109780579132294 0.9669594934567933 -1.188478069612986
C 4.390152397382684 1.6898849936144513 -1.1841964140470433
C 5.470355734388367 1.4050978938542416 -0.46885053722083925
H 1.1803931219671204 -1.2030554565838865 0.7793809963797756
H 0.6330502139676583 -0.007707250457614516 -0.3884675704505727
H 1.2437093841325269 0.5188230597009726 1.1832262188441043
H 3.5582173233692234 -0.35569738833874787 0.5199171952924435
H 4.008911063870993 -0.9568715417961137 -1.802098454376636
H 2.1320814753768658 -0.7310183169764566 -3.2674940683570726
H 2.2491255174061062 1.529603374798381 -1.5286876261084883
H 4.445834249409078 2.5235939255116837 -1.8800830125107493
H 5.489101231217699 0.5914052782522375 0.245764068854437
H 6.381400139476936 1.9849247786222988 -0.5717836223969827