15

C 0.931049639407266 0.06179873622869495 -0.002841991259231114
C 2.42759518963684 -0.021332832849148605 -0.07840148998362653
C 3.1097525294050756 -0.7596068974756133 -1.17760365410996
O 2.3037459655207324 -1.3837854472202062 -2.112021370689808
C 3.177597911887089 0.7539284545993442 -1.1491722549572978
C 4.401098865192008 1.4304479976461695 -0.8601944265929174
C 5.438110579124036 1.9748056856615404 -0.6140107483502257
H 0.5325524085890655 -0.795038093505151 0.5463207912603459
H 0.4948676744479819 0.05136375190722832 -1.0025370898667723
H 0.6237396877947068 0.9687112726609363 0.5060536658183823
H 2.941851786442676 -0.059261071551987135 0.8775045829529702
H 4.03913954700689 -1.2819296872216648 -0.9283016897199061
H 2.7695327049575127 -1.3875536826471337 -2.958704532350405
H 2.5341615698688598 1.2350583888839286 -1.8846514962197192
H 6.359228894607717 2.4705068640346006 -0.38598932322060153