17

C 0.8282293224063648 0.04767224313663873 0.22980506522514302
C 2.337239601691092 -0.08653877786315867 0.1245849602834204
C 3.198480724993072 0.9295720434784439 0.8866317591527004
O 3.9119221420587733 -0.1172181451193932 1.554425671556969
C 3.0494259572298597 -1.1140863199990394 1.0023158046274803
C 3.8097506386837554 -2.2302008069313426 0.33376535892589204
O 2.9501797322422387 -3.178811019781891 -0.2531168067353221
H 0.4733812988706297 0.9292215958334729 -0.29703174286969203
H 0.5180285014691943 0.13220692070215398 1.2776553474463097
H 0.33123053969525856 -0.8250751292920485 -0.19021614908362752
H 2.6312875386334693 -0.1832021775047946 -0.9239915722164853
H 2.6473193620646867 1.5572730164086699 1.5951245256065378
H 3.867995199873332 1.5572887732302323 0.2947553529636473
H 2.3870801044908943 -1.5353365059104123 1.7812653501893767
H 4.497285772769959 -2.686410610133632 1.0605630888669235
H 4.422145393685522 -1.8146635823576553 -0.47562025916113965
H 2.4856868549452718 -3.647949560897931 0.44230490113730186