15

C 0.9220579971221688 0.20737152477757878 0.08895145297071143
C 2.425767567402952 0.0975825892296929 0.013484654899122418
C 3.2795842193941027 1.0335866363893038 0.8983037945528796
O 3.998123309269354 -0.06749170804164918 1.4625091717172594
C 3.1313361232439205 -1.004488769290973 0.8392472804719658
C 2.9317777127889206 0.09947086731457265 -1.4013954890221878
O 2.2534430962937817 0.18037339029387883 -2.3874739761046047
H 0.5879335297311296 0.20075907449818822 1.131053210790672
H 0.4388333787963783 -0.6272713200780456 -0.4330177001839543
H 0.5765900363451393 1.1300812216973275 -0.3793069138973819
H 2.684002718297603 1.5705793029661552 1.6395753414458893
H 3.935917965797044 1.734390335305589 0.3768639455899523
H 2.455189136790675 -1.499388796389362 1.5499297907340435
H 3.6811040553597354 -1.7707884090281847 0.27169550002622567
H 4.037509510626885 0.022035649592789287 -1.4828451619425027