17

C 0.9204819817105617 0.32143831016488283 -0.08842568648982278
C 2.418969806354948 0.21351848415723784 -0.09907435306907236
C 3.115588518994006 -0.7151430780829311 -1.0272027221931215
O 2.321240155534546 -1.4936314246567701 -1.8708559647310787
C 3.2229759486941036 0.7691040727159374 -1.2492611381816177
C 4.513159128678449 1.4840767819690626 -0.9925340411185597
O 4.355898154222386 2.7775533215865393 -0.432977110514973
H 0.47735680940621905 -0.4184751270945195 0.5717939821761783
H 0.5088252497494987 0.1530007944583134 -1.0870347106525817
H 0.609861812240594 1.3068959969800342 0.2522292926510444
H 2.8910142040491413 0.33151121849717735 0.8807787727993523
H 4.006489810719154 -1.2291123094503513 -0.6467692909529709
H 2.786148748425499 -1.597452619893756 -2.705762902789223
H 2.627593092854608 1.13539929573917 -2.08284064964225
H 5.099371795834964 1.5408041163327242 -1.920787700575947
H 5.114175254691851 0.9290099560942028 -0.2697302979855485
H 3.7767855437511546 3.2807660455453527 -1.011172235867746