17

C 1.048915997810639 0.06060968596310673 0.27715226176663443
C 2.5360617802070293 -0.11858036242779502 -0.012995704247580963
C 2.9203126805332738 -1.5652889805851047 -0.3728300648545951
O 3.0469049773272197 -1.624824877156482 -1.7916861822253305
C 3.438372471382958 -0.3584015239827198 -2.242732365884715
C 2.3128804696388503 0.5866873668759078 -2.522589410964813
C 3.0669496039135065 0.6615113477703685 -1.218622271250044
H 0.7651284045254394 -0.4818290124466819 1.1820776385484804
H 0.4351454531471898 -0.3130199442827084 -0.536917142962053
H 0.804235074786606 1.114261248069842 0.4262058665063192
H 3.0998872595455906 0.19881478082466808 0.8653808047881328
H 2.163787245508989 -2.298842615570404 -0.07512365825257063
H 3.875466871696207 -1.8399722352313586 0.09833606633735507
H 4.358819725126802 -0.3300802644251156 -2.803757607109853
H 1.317542020637829 0.15890781832335155 -2.5409144040594045
H 2.4809217020753276 1.3896626868689457 -3.2296107396934723
H 3.6861968875778324 1.5274354574017392 -1.0386860480182647