15

C 1.0965766870408877 0.07556656171662568 0.5211335504820573
C 2.3112130807073084 -0.04672936137491082 0.01673911921153641
C 3.0159107920909665 -1.3460945492397765 -0.3070743855427951
O 4.410198915810007 -1.0748269571865319 -0.2979572739170082
C 4.585969725565974 0.29148768221449195 -0.4592391674826478
C 3.965541977964559 0.9520949352335837 -1.6364363700065383
C 3.2845116418156706 1.0164257921486446 -0.2796186788010274
H 0.4913469233388179 -0.7892740665173313 0.7754730138949438
H 0.6579285383403706 1.056441376801482 0.7110922923656697
H 2.7070075722565377 -1.7190623937150116 -1.2987664568388142
H 2.8061508287216137 -2.1406773485763217 0.4221036601692471
H 5.532115753647525 0.639776781056426 -0.0545964807598756
H 3.5132068205563454 0.3300892946033412 -2.406546405372084
H 4.411452684019569 1.873405103118423 -1.9938454249234978
H 3.207095810194294 1.9697851642417572 0.2254609147747268