15

C 1.1073941303056996 -0.1240583986329989 -0.13915652589043415
C 2.574021036893348 0.08550334634621011 -0.018924029299128266
C 3.277089440259301 1.1791992208581203 -0.28666027747259376
O 4.614276625088621 1.0916034888659243 -0.03493083270260851
C 4.849910653306439 -0.22610870907726155 0.3644461395654394
C 4.58322898866586 -1.3328502895349215 -0.6038189963978889
C 3.535918922056886 -0.95557578645644 0.42636133929918935
H 0.6033227704421675 0.7939725574369609 -0.45828288613073964
H 0.6691879279339006 -0.42809035016875796 0.8191411618443418
H 0.8634832351304235 -0.913019290862065 -0.8569715577879282
H 2.948277486182557 2.1390722521255 -0.6813180636137749
H 5.646118286382372 -0.31073528514905074 1.0996968679995642
H 5.138760479915451 -2.2409955619653035 -0.4407614401766057
H 4.38185174171383 -1.0752575809381117 -1.6356465841006531
H 3.2636085025977786 -1.6601164227033194 1.2068844661511238