19

C 1.1572091305186119 -0.02128066073713566 -0.23707425813566801
C 2.6362924900149416 -0.007096827563398285 0.04089412933835373
C 3.075568792629534 1.0419885082141256 1.0573009874266146
O 4.29755962849077 0.5855538945636389 1.6138353832281773
C 4.510475259880974 -0.7650380529930597 1.2555332153473797
C 3.1944630090892 -1.2782582944316891 0.6744521072789283
C 3.349241761090036 -2.458616413166216 -0.26588316225647035
H 0.8185222021993708 0.9360319698612987 -0.646897680193228
H 0.5850986689592154 -0.2017043086746059 0.6784479969072702
H 0.8859889639470848 -0.7965861458581139 -0.9646366615261398
H 3.191073351422608 0.1673204158111104 -0.8971669752269562
H 2.3181464040095054 1.1426870559257776 1.8446319422909985
H 3.240630618798637 2.027445319612258 0.6118771189891096
H 4.828325687432308 -1.327587509335203 2.13661221698603
H 5.306618239548357 -0.8264981466736006 0.503223188491527
H 2.535980979891141 -1.5619405762062006 1.5008985747839076
H 4.003367222566907 -2.203707281179327 -1.1120799542663533
H 2.3938917527669195 -2.782631546563267 -0.6587003503269683
H 3.8039882566519325 -3.320578061309346 0.24957109544823214