17

C 1.1786279868064207 0.08107841239597315 -0.3137620637196568
C 2.6624265012423804 0.030008743131960076 -0.0003093184609067063
C 3.0639939450392153 -1.2214064052601716 0.8100865543834546
O 4.025919579799874 -0.8139435873107768 1.776835836810149
C 3.9352893217958447 0.5500832538930328 1.8427348640318855
C 3.1781820872495 1.1189546717067995 0.9154675274850607
C 2.9309542845123455 2.568578591253221 0.7070838082350138
H 0.8729653893351059 -0.7770644535364282 -0.9210253316971246
H 0.9334224957353153 0.9805343663381539 -0.8821508570760007
H 0.5847773133474298 0.08301834969111195 0.6040760397652186
H 3.2254817537420366 0.0631632037688726 -0.9484187208835847
H 3.4998864378100576 -2.0186939960894286 0.20845871199666105
H 2.1856265361713922 -1.6203294081416786 1.3441301660294214
H 4.508599695247265 1.0039862433000355 2.64548734225028
H 3.4497876427641483 3.1704595421150246 1.4584575897408676
H 1.8627827875894514 2.8133097880839086 0.7531406203630505
H 3.2838171255890827 2.89261058345819 -0.28697731451099306