17

C 1.037827517843087 -0.07764237911115625 0.11110590330497046
C 2.514916687409134 -0.08099186206080145 -0.157007132592202
C 2.8390338296582787 0.01421683633064758 -1.6344053770862679
O 3.1866508492455665 0.9853954625117332 0.5831067180895109
C 4.169252019302733 0.07674995171163752 1.0874597819906153
C 3.3539292631342503 -1.1280344860385165 0.6104913141943871
O 3.979310715713003 -2.087386757311883 -0.19248738579347632
H 0.56765815591742 0.8180036075551876 -0.2939446609794486
H 0.8379551990187737 -0.10551119447233286 1.182799457286816
H 0.5588013069555785 -0.9527217829382064 -0.3556109240484346
H 2.403568155308863 0.9298309079070655 -2.03384608237236
H 2.415966838661496 -0.8454684230259482 -2.1752697037738282
H 3.9076083345600097 0.027886804318318165 -1.80339707114726
H 4.321735399268907 0.19176120223800738 2.1579381531214326
H 5.13108996126178 0.16682726499208114 0.5639445606490163
H 2.7762502882449507 -1.5882500150955863 1.4113711420313497
H 4.333286534887197 -2.78050064638855 0.36709626017530106