15

C 0.9810829210742186 -0.05273509918275647 -0.017008959221838912
C 2.487291074239366 0.026883452378867606 0.07409387779694047
C 3.181773014356128 1.0610874978984344 0.9993858072290107
O 2.30052246904902 1.4361431992154448 2.0249493259888025
C 4.207325644691044 -0.01515002186884934 1.4304866541004768
C 3.265835978681822 -1.0489680876789025 0.8264871286953052
O 3.12952926468414 -2.2246776634114878 0.965610991810728
H 0.5729627311931442 0.7925188324060168 -0.5812097831858384
H 0.5304486833458573 -0.0555476621593563 0.9807592149002508
H 0.6877670333574385 -0.9745335398200801 -0.5283594806302495
H 2.938159911301569 0.09460966315364933 -0.9235640408970478
H 3.6001596250045997 1.9347171520780362 0.48490861805096974
H 2.796458867455198 1.9339699601609084 2.6836455186823387
H 4.413768069086343 -0.10225785345103841 2.4955784180221396
H 5.156891304278078 0.03529291955706214 0.8823855899154084