17

C 1.0266404518291203 -0.03173078478970787 -0.11294903293554821
C 2.5150437843056657 -0.0826725725880267 -0.04891504884284837
C 3.241600601181902 1.006164856601829 0.17934576906420097
O 4.588785068794692 1.0921864419592064 0.22344718491406432
C 5.2641338180876405 -0.03989447105908923 -0.3036875446366559
C 4.6545032897642615 -1.3352989023414619 0.19550370952721174
C 3.195856444524793 -1.4105559204683424 -0.2321042540271935
H 0.6511003777806135 0.9826226239533761 0.04437267672025262
H 0.5727944662498329 -0.6821221736395302 0.6535942183472208
H 0.6543342499854106 -0.3912419759296538 -1.0763735207942908
H 2.784773944908894 1.975842358397004 0.3815583790951831
H 6.2996743569579206 0.060861419930642584 -0.004089299349498881
H 5.202509497626833 -0.00606009175892695 -1.399956548305379
H 4.723191429192068 -1.3531643791507866 1.2933320481929271
H 5.222531792077723 -2.184454862788171 -0.18409591767625447
H 2.661338826787401 -2.1685148811331323 0.353525621310223
H 3.1188508691129235 -1.7461457797840254 -1.2789147250198902