15

C 1.0347394064569326 -0.004786181491818247 0.009706895006967647
C 2.529771975600713 0.0025642643723255394 0.0012347792405252114
C 3.232170922192663 1.139405775605348 -0.010464479206571002
O 4.579397928159725 1.220575644046274 -0.016642140872079835
C 5.3795078452227765 0.04481170838660844 -0.0182279158775519
C 4.611856785169158 -1.2395689395830218 -0.01445667875648972
C 3.279552726729888 -1.2471033871605133 -0.0004796329249482194
H 0.6349360729037641 1.013705098559233 0.009939755939995
H 0.6413702114563793 -0.5130628838813921 0.8939993541364121
H 0.6262130021446712 -0.5219168866724573 -0.8655465938236062
H 2.7828917289555912 2.1231237104683913 -0.006609784414977882
H 6.047436288019516 0.09166356370661408 0.8530085058495028
H 6.0326872942919545 0.08899876391680914 -0.8997109685673694
H 5.181316570444678 -2.1567981982978783 -0.012499747876262818
H 2.738763428530068 -2.183168197701107 0.00022105836565736018