17

C 0.8605581784780433 -0.0015777228246874045 -0.051766969129838025
C 2.3756470404765277 -0.04907579921928537 0.08422440534945268
C 3.0452186630268874 -0.02514303265738296 -1.2819396497362205
O 2.734961213520051 -1.254645591063215 0.7588807616950939
C 3.422193648980058 -0.9848110386615966 1.9666553778142215
C 3.48334157049296 0.49755796292776994 2.0564791441240478
C 2.8940028448670208 1.0339671919937605 0.996233697846626
H 0.5084355220644767 -0.8527267212926068 -0.6341142400773692
H 0.5460162778906853 0.9116683588478661 -0.5602471646388009
H 0.38136783708656796 -0.025955329544423693 0.9269502510170419
H 2.7153181134053193 -0.8796769160571576 -1.874986388069297
H 4.128643700602618 -0.07068062706835482 -1.1737410595571502
H 2.7871408142921643 0.8865828735628103 -1.824446373088858
H 4.4211007836124505 -1.4426560565559776 1.9495111629085535
H 2.8721837670519164 -1.4237265561524401 2.817509045703627
H 3.948578057683384 1.0318080202042335 2.8704018948181247
H 2.785662298860585 2.0904541633362324 0.7704399804792464