17

C 1.0343357390516623 -0.05520210944693094 -0.0965057691853512
C 2.5268200272185357 -0.1216520179700761 0.15665345546562578
C 3.06578291027652 0.972674694717373 1.062116615334384
O 4.285033176480414 0.48099292026349694 1.5946866561829747
C 4.288281125132861 -0.8841736109124037 1.5452683070942868
C 5.309586454365861 -1.6027284743138783 1.988920778397623
C 3.0067769005497746 -1.3603047775042725 0.920512216655975
H 0.7590407039086955 0.8820954764725888 -0.5905972035814646
H 0.4760659793694845 -0.10445564918495168 0.8412043471653319
H 0.7012170653627163 -0.8788459878780845 -0.7293390645368084
H 3.0654834923510146 -0.07544357079953568 -0.7995116695738317
H 2.35893411527762 1.186072286710108 1.8815086092914224
H 3.282063877582439 1.9064322700601328 0.532686761527063
H 6.174195221064245 -1.1283604844871193 2.4316066572036283
H 5.282153254949803 -2.6781544706958735 1.9119476390462515
H 2.2775303599207186 -1.607191273357401 1.710543223592894
H 3.1412978982290864 -2.2397738439293073 0.3033237488080504