17

C 0.8935326416893893 -0.10183468518210452 0.392024300968525
C 2.3843902776769186 -0.09534146174172067 0.08280799446776607
C 2.7800757550551043 1.1386702656581487 -0.7203605324164273
O 4.10545601944339 1.0644005953743914 -1.1714850956482603
C 4.29051792029713 0.03111758900565762 -2.112249648698376
C 3.643677003390035 -1.247832556288194 -1.7080848590240945
C 2.794287455783623 -1.313695959169517 -0.6873921653170235
H 0.6125086884346327 0.7986013453797719 0.9574235558062817
H 0.6257391967207931 -0.9679722705411131 0.9939198908817619
H 0.30592624777575095 -0.12359583287198429 -0.5238088564129852
H 2.9342825420840666 -0.08440624069607112 1.0282708859283844
H 2.7143993401742716 2.0335997807110804 -0.10304789746809685
H 2.0890231737830165 1.2521868357953088 -1.5684253547290248
H 5.376465914199547 -0.10733822451686173 -2.2030720342386654
H 3.9285782861603447 0.34548237974478807 -3.1092189098794663
H 3.893726033306273 -2.1390020490646746 -2.292502125442834
H 2.357786056114883 -2.2666511925211186 -0.4008439981629974