17

C 1.2931338682828801 -0.09580450281389732 0.25985721429897807
C 2.766004192455479 -0.027267586190841887 -0.0876676108537124
C 3.022929622060496 0.1385178825475973 -1.5702233081766632
O 3.3392172335044568 1.061753782475839 0.6373048279133323
C 4.5113863004108 0.5895634347728702 1.2725861536267091
C 4.17919084046884 -0.8649993854951735 1.50841246803022
O 3.4491014461524125 -1.1946882017667748 0.3536569354468226
H 0.7993533100867799 0.8432128786657176 -0.009240829718724808
H 1.1680750464072738 -0.26688290432933875 1.3295037622770554
H 0.8174586214648771 -0.9040604474014472 -0.2960131022068704
H 2.5040398921569893 1.02120686452257 -1.9460616729273283
H 2.6562913555906933 -0.7431010151559105 -2.111477336534637
H 4.089658465825706 0.24198771221671908 -1.7536835988599635
H 4.667528398618332 1.1703478858195455 2.1787128911267306
H 5.38706262137575 0.7045970403275171 0.6203026184886924
H 3.576142508340578 -0.9877899068131729 2.4264907857787796
H 5.054407362814032 -1.5089126474885317 1.5667575121511632