15

C 0.8350226095590956 -0.08524708859904809 0.03830384688564468
C 2.3440551788482953 -0.08787336229798673 -0.049085127920779535
C 3.0434102840179835 -0.0797931670875169 1.284917852544543
O 2.7701122716546687 -1.2438215060024682 -0.8047516982205059
C 3.3939211131329894 -0.7603615152631108 -1.9178471354968676
C 3.403986848510356 0.5660745452652889 -1.92985203426426
O 2.7741283785295585 1.0538630613444364 -0.8140651202032737
H 0.4940181122200509 -0.9679319359279487 0.5801616306233325
H 0.409257621859144 -0.0877673892042295 -0.9577021282678532
H 0.4973583395269582 0.8045923207877629 0.5735651184660018
H 2.7659779112847067 -0.9660082614404916 1.8556093415082773
H 2.7692660338807373 0.8076857193193665 1.8447443779663955
H 4.131346627698647 -0.0863434868865455 1.129391987586662
H 3.792667564073001 -1.4813036887637123 -2.6177042006072697
H 3.7986004601604777 1.2748700939631201 -2.6364068646643046