17

C 0.9915935470590228 -0.05232547897369068 0.0684281568016501
C 2.480986599823325 0.06137440527224362 -0.12833999166223195
C 2.8247192218924657 0.03942897224367504 -1.6076318841021158
O 4.198842589261303 0.2080689463069647 -1.8952758040169624
C 3.2057668142266516 1.1233310946053499 0.7202658662035569
C 3.9775832937245386 -0.056205861368925455 1.3013684499794769
O 3.190520414136142 -0.9914551366314575 0.5656532284143987
H 0.4787880766554997 0.8180684223848135 -0.348920826882801
H 0.7483686262716119 -0.12023506175910284 1.1302799718302126
H 0.6077388402075814 -0.9545053635306511 -0.4184178565576135
H 2.2199878476963453 0.7968543873973144 -2.1311681767591475
H 2.5540913212839973 -0.9433116823397609 -2.0033293888738406
H 4.414619298527375 1.141420870417103 -1.820340932730488
H 2.552065381556681 1.638245749220947 1.424202867646082
H 3.7927106414020666 1.8694655124155772 0.17717128036535995
H 3.892471144690224 -0.2104737237547158 2.379563661214175
H 5.028932847663459 -0.10713926565277428 1.0105371721718936