17

C 0.9330071264775552 -0.05261473323239265 0.019450496364777043
C 2.4556838746257186 -0.08082511053868702 -0.11236367953301366
C 2.9621003475575334 -1.4629541467800788 -0.5262945389563592
O 2.612522751661394 -1.750491179775095 -1.8633726390038499
C 3.113329232499908 -0.7771500634406676 -2.721063476014671
O 2.6102334103512375 0.4932511472989738 -2.451890443711575
C 2.9591529654017235 0.9085893168684146 -1.1490756234612987
H 0.5948724763544881 -0.766481097547586 0.7683481421729689
H 0.46131109850842666 -0.30118880348534294 -0.9292270466080329
H 0.5959313029062564 0.9408006533361399 0.3213537720671202
H 2.9114233910275398 0.17468140018965542 0.8588133664286236
H 2.530582614719276 -2.256435263900685 0.08658835927669921
H 4.05855282786031 -1.5007036908108948 -0.41104833434951665
H 2.807154513374781 -1.0403196988416965 -3.7325174504565064
H 4.222319690026418 -0.7529945507717821 -2.6504987756971348
H 2.529686435956319 1.8998978464965095 -1.0034919027647473
H 4.058907277866693 1.0020453910813747 -1.0787642549444718