13

C 0.9064378167135162 -0.045976343049194644 0.0409734102560915
C 2.375805028685197 -0.02001014682505597 -0.10608168403315865
C 3.2007388607665606 -1.0414541964319939 -0.2719626934753957
O 4.538986942349039 -0.698828195831066 -0.3781979154673228
C 4.63234800669161 0.6684136417464763 -0.2734579611066846
O 5.664781559627615 1.2346724471187802 -0.3374840342478613
C 3.2221619624149995 1.2072995131541895 -0.08679921073486253
H 0.5209556233465527 -1.0689961394835434 0.0011975073103136715
H 0.4159779251886802 0.5330303652190395 -0.7453301697607531
H 0.5942477872406332 0.39072108532654615 0.9962614613660408
H 3.008982826365069 -2.1026031178678903 -0.3338418186451312
H 3.0003444830827704 1.9201300994524282 -0.8893970189395962
H 3.173001349128052 1.7717638605686576 0.845679175720889