17

C 0.8667113700202943 -0.09933942239539383 0.05679538056831855
C 2.374712639970788 -0.041046819553989915 -0.07644408151829316
C 2.766619603296489 -0.02302810684613753 -1.5455211311016481
O 4.149991627769184 -0.09774996950130531 -1.7801518608399132
C 3.070011360616969 1.0256157980338585 0.7903209782169975
O 3.8033456732761177 0.03192460197963348 1.5099637606892788
C 3.162614354103365 -1.0287789261683917 0.7840084798199987
H 0.39216446614267914 0.7521350132067853 -0.430528168381325
H 0.5591833508074001 -0.0874626202458072 1.1041584230579593
H 0.46498133923435025 -1.009500320537695 -0.39534571414170655
H 2.326705079147965 0.8678375318166416 -2.029106212506006
H 2.3339961093464674 -0.8981109756780079 -2.0495240974728413
H 4.581582272687769 0.6671875888684307 -1.379277582319115
H 2.3943204008781875 1.5994735384247298 1.436271805335328
H 3.722370765950356 1.7268914990686572 0.2679883195157856
H 2.5564663942165495 -1.6595918054665828 1.4468843794212565
H 3.893319177381201 -1.6403953482492526 0.25133361509786917