17

C 0.9312641960254525 -0.07438288058219868 -0.11619864134702093
C 2.4058806600992044 0.14600789934333674 0.007884553873314944
O 3.230719240189537 -0.47758191203893724 -0.9750823636064591
C 3.1700036923718033 0.9515510902472906 -0.9514837335262246
C 4.42531663186355 1.6683501807035575 -0.6175798862932882
C 5.5164166397320615 1.5372448001681525 -1.6249183073511286
C 4.537196425487236 2.3877720580002535 0.5029789489701826
H 0.6707528913837864 -1.0758593983264158 0.21456873937219031
H 0.6148666437319393 0.034316827192477285 -1.1602391164873138
H 0.3830374919863898 0.6406225637696457 0.498060339552881
H 2.811453156135178 0.07599785816364706 1.011039051300654
H 2.620728358346909 1.367992497381721 -1.7991044486223293
H 5.194768647997588 1.9262234569866379 -2.594872854179433
H 5.772792546119424 0.48633282849129994 -1.78100762326043
H 6.417818281574592 2.078288153075147 -1.32124709234135
H 3.720865040360895 2.4552429843210137 1.2054759953608911
H 5.454271745835197 2.9212737147400736 0.7280491026194454