17

C 0.9305903718997863 0.23872016360801748 -0.27516061562026967
C 2.3931886402791 0.37793158287003886 0.0012339954034656779
O 3.227924626841183 -0.6988332426679624 -0.4009706662199913
C 3.395014361828523 0.5522983359153326 -1.0553738792539549
C 4.698390058923404 1.2677960456234298 -0.8327022971615998
C 4.602278823611837 2.720413487058797 -1.1733598977962665
C 5.295865692274204 3.3235048060364445 -2.12793588475723
H 0.47122430023682876 -0.44786793274740583 0.42804262134837895
H 0.7645938353796388 -0.13841642061406365 -1.2878105882878859
H 0.4326294385978165 1.209626236497212 -0.18099186430130781
H 2.6564832549642636 0.7747478341414801 0.9839951300326929
H 3.0293477410635297 0.5696731124010856 -2.083864222748683
H 5.4788667859993865 0.795508699022179 -1.43427438414179
H 4.978183958337925 1.134762293565069 0.22314553384760702
H 3.900026486229213 3.306808930599924 -0.5846742169166544
H 6.006604624484754 2.7791033891111705 -2.7409331704583466
H 5.181114316624908 4.377721479281679 -2.3338658410448203