15

C 1.301395115092957 -0.2286260126857948 0.042971574619029555
C 2.7012447529771895 0.06858712007187041 -0.3831349021351776
O 3.0378162293009514 -0.17056577284707297 -1.7283311626999407
C 3.005790303877464 1.1775175006388117 -1.3003637787932554
C 4.309621883490265 1.9211401412955162 -1.200289041369211
C 5.5725489216868676 1.1194812081446994 -1.306608343136114
O 4.285762670278924 3.1193190800650314 -1.0588020368998177
H 1.176910295663805 -1.3099135912219808 0.19610724120594025
H 0.5888305305227033 0.09497698612148756 -0.7161528503323806
H 1.0730459394963565 0.27540049058297367 0.9860258178195693
H 3.485068056546458 -0.2290054532347542 0.3187764080302051
H 2.176981383342796 1.7764238225973175 -1.6644198284371328
H 5.672342036843181 0.7391455760069846 -2.3352293878992736
H 5.546754086930964 0.24885294332334798 -0.6574466919034702
H 6.420183456469377 1.756309301776723 -1.0716906263445551