15

C 1.1905151513764705 -0.07571987780927948 0.025270812591769755
C 2.5172706422852733 0.020328657244679162 0.005492678143671727
O 3.383676992901108 -1.0399379828177608 0.05211745200644828
C 4.663760122947528 -0.36753694514061014 -0.001673003483402694
C 4.4547773231577175 0.6596867088410225 -1.1147223066769663
C 3.4259441306839635 1.1998200812459052 -0.07106326549253777
C 4.48331000352665 0.7719484492180717 1.0047489739997189
H 0.7070249556617146 -1.0451453220922058 0.08989779853267398
H 0.5874936921061047 0.8101215792582627 -0.015148449137671978
H 5.459054929279544 -1.103484014198698 0.033331762580788835
H 4.061600250279884 0.29252978365495325 -2.0686585021429207
H 5.300393532478999 1.3293856265147599 -1.2507428016859423
H 2.987936779621527 2.1974375388282175 -0.12370773166684587
H 4.123483296284267 0.5223705578484209 1.9976601916908272
H 5.330621785933295 1.4496074574752167 1.0404221226330368