19

C 1.0709184517808683 0.10582719899184705 0.025921697353992225
C 2.5586621505121436 -0.08000701668128621 -3.4627806100205e-05
O 3.270642344626507 0.9580648279161702 0.7044925746195394
C 4.175563698523846 0.002308472686137694 1.2599006912420145
C 3.2715369390977007 -1.1724693893896505 0.8359291180728889
C 2.4492935321154614 -1.7043738534189998 1.9978989387954607
C 3.9231074445991063 -2.293350280531226 0.05563443502356366
H 0.7982225178509809 1.0396775697042606 -0.4769405388993967
H 0.6866800266846488 0.14917458779014073 1.046811167874694
H 0.575345213222792 -0.7185123948228052 -0.5042881577928976
H 2.9079238956476594 -0.11933901241971569 -1.0478976224047107
H 4.326166358042451 0.15652040283879023 2.32374331037634
H 5.142607978255928 0.019167897384745156 0.7438787777230329
H 2.023457885178046 -0.8968403800805996 2.5899807984054766
H 3.0911863480077066 -2.2991365879337073 2.6659062656698853
H 1.641168054298374 -2.344452073586616 1.6517283502553881
H 4.514796918961959 -1.8999687031777257 -0.7772720591935979
H 3.168400008762916 -2.9584658743671683 -0.35875964167738983
H 4.579395760889145 -2.8855957262035643 0.6909042483485096