17

C 0.844826459296239 0.022741073385874902 -0.13621795425260577
C 2.3369298558265683 -0.008231482137935873 0.008869007913494268
O 2.7803119278201733 0.16111803082251527 1.3290377078527587
C 3.1589769746353222 -0.9009214701736701 -0.8733733221163327
C 3.206972319603357 0.5986695099776507 -1.0327130508207683
C 4.463171269000121 1.3491387034419746 -0.6847154012151022
O 4.23808062883638 2.726453563369505 -0.451478665083098
H 0.37857671557549116 -0.7932340927892777 0.41041192215345434
H 0.5535404153220251 -0.06957644232312954 -1.186486105845869
H 0.4512432392534127 0.9658810139523863 0.244754268724858
H 2.5715163145879947 -0.6330836819194609 1.8262985511500647
H 2.6777000397721418 -1.4903256924911834 -1.6331625562558636
H 4.036371930463024 -1.3630391619727198 -0.41730383399143356
H 2.6815313061023596 0.997967782559138 -1.8962872607242784
H 5.209622818282351 1.2043925521605934 -1.4769287683716237
H 4.86998861468978 0.9517240466477604 0.24926026314231697
H 3.9139259118969476 3.119941986936772 -1.2636760896534065