17

C 0.9129122334134037 -0.24378174196701596 -0.7296848172533937
C 2.185401126226508 0.34947025409740895 -0.20173220451308604
O 2.0200010857148687 1.065024945584481 0.9892047946909551
C 3.5095347291171595 -0.34159612696160574 -0.3917058210733506
C 3.2381396253978365 0.9723468832410683 -1.0795832175613562
C 3.105732339923181 1.0301051652933624 -2.5716701548529337
O 3.854443345735231 2.116319874139745 -0.5824536631012787
H 0.513165384855609 -0.9733360046159389 -0.024731558369647993
H 1.0658047303160763 -0.7532778662999121 -1.6859314494206465
H 0.15431740955466164 0.5397832464885357 -0.8724345717198959
H 2.0435670230471943 0.4521303912500067 1.7322541045343018
H 3.543415942471094 -1.2511320830988377 -0.9723617275249754
H 4.211566840515905 -0.3013770454122842 0.44172605399351017
H 2.699863016875475 0.11267904860923167 -2.9903372306597182
H 4.096765358626825 1.190674752050561 -3.0147419643436013
H 2.4687612349641608 1.8736457094345935 -2.869475695561393
H 3.47119836359168 2.2734644581748076 0.28112357464907206