15

C 0.9719947564540016 0.10088342887802022 0.2621169272651524
C 2.443432294320291 -0.10808677526217413 0.042034290493503726
O 3.242084766081217 0.9707744070530624 0.5575015088440889
C 4.061041566030337 0.057008818134677515 1.2975421643211085
C 3.161689879042241 -1.1357523073610107 0.9516030668307357
C 3.8175946629047868 -2.280422038360328 0.24565479321416112
O 3.657701543324295 -3.43425686706235 0.5035502502915338
H 0.6294028530871687 0.9803408814385501 -0.28903160289409396
H 0.7455917837737197 0.24289822908697942 1.3207638825555421
H 0.41118081481400875 -0.7740509164021042 -0.10066021614742283
H 2.6568603090853036 -0.2641863065954995 -1.0179393197521378
H 4.116445201949438 0.3130553818289983 2.362231021386886
H 5.078887703861956 -0.007946445577444124 0.8902879565310016
H 2.5480139151072074 -1.5128640216524138 1.7708612266957966
H 4.491698747950465 -1.9761679120421323 -0.5931753123943292