17

C 1.078784523726751 -0.04164917866244053 0.09673837232520023
C 2.5755958558391776 -0.12067184520776773 -0.10998263830222663
O 2.867195210061532 -1.2540280351156845 -0.9532034510388598
C 3.3191743625938415 -0.77032579823204 -2.133655566950046
C 3.5006855382747313 0.5409585706365603 -2.1768970312041884
C 3.169653578514393 1.115713819429725 -0.8231825003683655
C 4.377926881450656 1.7117603119798768 -0.11678916979154688
H 0.6985666461644757 -0.9776969693754418 0.5240326332015272
H 0.5770027424489101 0.12982025554274484 -0.8598391991345371
H 0.8339969073438461 0.7781391721874151 0.7771588895643713
H 3.0797618885672917 -0.3058180174612534 0.8404260532383561
H 3.4987562768833054 -1.5169101108472878 -2.900981268439322
H 3.8580903193764517 1.1061273988943048 -3.021760779614854
H 2.4022554291748337 1.8921801285446365 -0.9046604233690251
H 5.162624919042501 0.9595668744506658 -0.008632949849824057
H 4.1089490397548865 2.0784690732292117 0.8812490836244179
H 4.7945577656467355 2.55080588638811 -0.6741315976510396