17

C 0.9738190162126084 0.10670528788614446 0.03307584879334082
C 2.4746829267893595 -0.02661622785421259 -0.04113040811445055
O 3.0741872969534025 1.0464543090234468 0.6739393608335308
C 4.362082770596312 0.6195300888017218 1.054202054333796
C 4.182222239462601 -0.8307276705945684 1.4813438686552982
C 3.0547711932577886 -1.2784085754376457 0.5776998833566552
C 2.664739221313455 -2.520072242810259 0.351001344667565
H 0.6497313827752337 1.058137060115861 -0.3854951324167329
H 0.6388334782432369 0.042799374917720776 1.0746406816643888
H 0.4869378888455848 -0.7005071706324817 -0.5366702815615478
H 2.78881291146075 0.030466739696428307 -1.0886105787005744
H 4.717500106493893 1.2798523028062083 1.846594277304724
H 5.05987502408668 0.6938173155518451 0.20320810458827257
H 3.8585278683338493 -0.8753423877401227 2.521091942749125
H 5.077160716722769 -1.4348356576217094 1.3747321243671504
H 3.1455717039961626 -3.3675203215083656 0.820213419162045
H 1.8303204384260159 -2.737708513401004 -0.315513834750488