17

C 0.969907114498417 0.13144903540738395 0.07029524994383923
C 2.4612062457521207 0.03920439111367333 -0.11492410606567546
O 3.1781170507439387 1.0467729425584402 0.6195019262342856
C 4.135323160002228 0.08506385037813576 1.1059957350874847
C 5.4914606859513375 0.22088207944192909 0.4547806430604262
C 3.2493538688937207 -1.0648802969647824 0.599086930074754
O 3.9042164385799927 -2.036737660346512 -0.16553668207323977
H 0.5875091280568048 1.0874286925438952 -0.31294291392048124
H 0.7082662538331479 0.06206361446063829 1.1349430481047558
H 0.46904640050479196 -0.6720826039607157 -0.47583490621030355
H 2.726239408085788 0.07773584082254993 -1.1765801784707732
H 4.22502292840438 0.15869690385311788 2.1953915319349573
H 5.419103086514458 0.142015608576766 -0.6272582741072942
H 6.1684044417073425 -0.5647253597641214 0.8096794700782406
H 5.917076970590905 1.1967379555858622 0.714316037841479
H 2.6751267602266413 -1.5177562119669443 1.4109783402826443
H 3.317100378979237 -2.7710678999912197 -0.3047506622435871