15

C 1.2119333867031479 0.0846953646793552 0.23371720507112534
C 2.6230864555440854 -0.2575410086030457 -0.21551080573687184
O 3.5508447037145356 0.7837680606250295 0.02900840436097823
C 4.220941274444244 0.5304983322633341 1.2596399256549031
C 4.370943065039429 -0.9845834687085776 1.3340682853803423
C 3.1650833177671998 -1.46080661075087 0.5478240972572506
O 2.7107138159661046 -2.571364356428765 0.5261932499376295
H 0.8538180436014434 0.9556487594398968 -0.32048215914228717
H 1.1820244671707938 0.31958978375678626 1.3036420308110659
H 0.5544782791386833 -0.7663275313589177 0.05200834876165701
H 2.6345424570522247 -0.48280745842046496 -1.2826524420427197
H 3.6239483136436332 0.9019865637759391 2.0983680771579234
H 5.162679869741794 1.0775062014465753 1.2396111546740882
H 4.3824748460721805 -1.4016831338063755 2.332608769112142
H 5.274718286374373 -1.3150484693301256 0.8062453096333703