17

C 0.9053086567538039 -0.007759750473968682 0.010137983103243303
C 2.4261122693090473 -0.055366526902362025 0.05075716649550035
O 2.9442649350346524 0.1294634229522576 -1.2574448231388013
C 2.964690146101101 -1.32973774669237 0.727425770972551
C 3.29824271445358 -0.9361766501934966 2.1752218954502935
C 3.42160989450746 0.5596093321983537 2.098978346302343
C 2.9677276096565586 1.0312043090904544 0.9477130613805845
H 0.5130916352209571 -0.8049210997564435 -0.6346777140597939
H 0.5577252614724983 0.9476597731245423 -0.37826926851023956
H 0.47726337873271174 -0.15984252517441133 1.0102343757090615
H 2.4696884266624357 -0.45773396128810767 -1.8542885851223003
H 3.891544584491431 -1.6034348979113622 0.20598264893860105
H 2.2736104575611185 -2.166667856298528 0.6569224482386133
H 4.202888838180539 -1.4164297252982574 2.5601854325505125
H 2.4841777061400876 -1.209111325186784 2.872482396236437
H 3.809262681076428 1.1642691244725063 2.903224437162058
H 2.923144639671839 2.0786590339259488 0.6532629210024367