15

C 0.8827555134446237 -0.03445072248584677 0.32077175242258277
C 2.2282532908629165 -0.0012894609048520566 -0.32955595926446185
O 2.485049556286844 -1.1867493191260625 -1.0709682317081486
C 3.216820431718772 -0.7480311967457971 -2.1479713499691138
C 3.1328770141583306 0.574558655451371 -2.2715538998792506
C 3.6486528141032495 1.5299376008796541 -3.2714358123351786
O 2.342756124602212 1.0687632835096217 -1.253682237277292
H 0.8274274305754357 -0.8646001100251518 1.0161921058985923
H 0.10749521974498508 -0.1468042802849757 -0.4394567330080807
H 0.7175138408392389 0.896528199687026 0.8674677971121271
H 3.0378018964761893 0.11740898239969065 0.4205443242168733
H 3.6944368147914206 -1.4905666337431829 -2.763390939890581
H 4.216468483920143 1.0025846256136324 -4.035173559346576
H 4.290591914327318 2.283841283176796 -2.7996756806827023
H 2.8146563303091465 2.054414969408528 -3.7458963481520455