15

C 1.1498502530353847 -0.07517757401656645 0.04114927164364718
C 2.646616167597895 -0.07664808936774292 0.03590372165951881
O 3.1581328207733885 1.0145097611477158 0.7442208884176529
C 4.435949251351724 0.6121330881882445 1.1825055710000283
C 4.289823601891949 -0.8744282576744609 1.3512138441048498
C 5.078094971797238 -1.733034785941035 1.993999080586128
O 3.147278592718481 -1.2359130664247848 0.6933032019378803
H 0.7786930927060295 0.8130371878559931 -0.45735450680607886
H 0.7839307261275588 -0.08970379448741359 1.0652643944514935
H 0.7744714943206937 -0.959987973721397 -0.4904827624984757
H 3.04853525748644 -0.07789991273641554 -0.988604003659045
H 4.681835520542324 1.1293733211390273 2.1019241360648175
H 5.197583793935082 0.8501524942389278 0.4251386564217082
H 5.951119190079122 -1.3714437246521796 2.5174327779252152
H 4.861442174834152 -2.7872857414948062 2.0120876668472065