15

C 1.0637213322818226 0.06089447111843612 0.3001748286888838
C 2.5423487280078367 0.0612054889834509 -0.019740537826423477
O 2.7732315532199276 -0.02487189044606384 -1.4068643098896172
C 3.339298935228457 1.1650581361562415 0.735868396269412
C 3.8528934421421335 0.07037078933505954 1.6579366304332999
O 4.379978919634297 0.0670362656396805 2.726193089820944
C 3.343971694234899 -1.021824303883129 0.7313516918240744
H 0.5745103766207362 0.9453801192419408 -0.1217876257579632
H 0.8858816834844997 0.08208379788472782 1.3818936950135425
H 0.5831404509714445 -0.827000883876761 -0.1033153017097531
H 2.238363143446277 0.6599115199525495 -1.83931026664301
H 2.7989289405468822 1.9943432749858787 1.2015111260658538
H 4.145131846284849 1.560055185978072 0.10955472282082149
H 2.7999633978175695 -1.8572613068570711 1.1901944234924302
H 4.141255417036097 -1.4168500545547238 0.10597750749761284