13

C 0.9864048605466742 0.07338165538392345 0.066884612791328
C 2.2743833985316204 0.028861745476332835 -0.251700169230976
O 2.980318426725575 1.12078848750472 -0.6544707196258202
C 4.3031880367973905 0.7385911304726189 -0.9162552805252465
O 4.4139464883588095 -0.6361856706059458 -0.6669636388173298
C 3.2012717946129126 -1.1150165934127814 -0.27017934907649443
C 2.984949966479427 -2.383737226901297 0.03113458141633317
H 0.43084861642432426 1.0021659555095275 0.025332101811482616
H 0.47201911715874595 -0.8261448515741933 0.36744466582345175
H 4.982162398681918 1.2827608993864452 -0.24902856176341603
H 4.543111532009395 0.9412262825508153 -1.9663032552514916
H 3.7818161968940194 -3.120447843768162 -0.019612116833803213
H 2.0043743931031957 -2.711499074863736 0.3488642944045745