15

C 0.9353263135803788 0.2282238851233598 0.15626136327669968
C 2.3912055597250528 -0.06885056437022229 -0.06268162712244557
O 3.2556422153507936 0.9724934660684004 0.49756980483781243
C 3.9202377011173377 0.0637999989055533 1.2657679731792835
O 4.837137356083371 0.26411389983398287 1.9887728754021494
C 3.0753536604768397 -1.1212346114324052 0.821857999095429
C 3.810607539677849 -2.2788031412093743 0.18183340526016878
H 0.6436358970312503 1.1437554685229325 -0.362028951948398
H 0.7261540365652892 0.3480149908129753 1.219737187670023
H 0.3230059798304599 -0.5966601597089262 -0.23105517518164745
H 2.6318695185238403 -0.188607894574331 -1.124138917316811
H 2.4278625663937463 -1.4583799192742646 1.6378328289217197
H 4.454976472893345 -1.9330486084927259 -0.6302617123452438
H 3.116030148799451 -3.0072701159350115 -0.22443296099432944
H 4.447467919061649 -2.7806820950897224 0.9219837404917164