15

C 0.9344627208826586 0.1052174246967544 -0.027907308664511563
C 2.436882291826817 0.0034062240765421266 -0.03677322499357711
O 3.0133626210101903 1.05238832415879 0.7342719494207106
C 4.255515532891075 0.5669424772086359 1.137478693631712
O 4.098341332096754 -0.8220626800041916 1.3490300651642624
C 3.026422175412334 -1.2242879648684843 0.6175864578389185
C 2.6256807631168204 -2.4857879495079716 0.540289582077358
H 0.6255037228214474 1.0585711653369152 -0.4585168371702508
H 0.5571994890424179 0.04222462654664052 0.9887908464760159
H 0.5017645963751001 -0.7003854670864303 -0.6170442205986171
H 2.816928272734546 0.07418556615650614 -1.0748947341250117
H 4.547424642866451 1.0485093257427225 2.064504203287561
H 5.017496039223015 0.7267886412634482 0.3499081578381902
H 3.1615890612039723 -3.282764073265235 1.0540238961232866
H 1.755518275693476 -2.7405412392861512 -0.03873613146422217