11

C 1.07392486049537 0.010072237255988995 -0.13950791646164615
C 2.379437612443738 0.11746467489799817 0.06378401584436916
O 3.164644233438104 -0.9719770588384934 0.32547211288802796
C 4.471704266888793 -0.5588973520921657 0.49544036437611644
O 5.357851459636687 -1.3172877125899378 0.7347273582119657
C 4.477120839071688 0.9030091980770418 0.30747722702397373
C 3.224661409355322 1.2926714609611443 0.0473679957321893
H 0.566816170553314 -0.9457598136368536 -0.10266840578336793
H 0.4902158417969804 0.9080421507254324 -0.3526829327617632
H 5.382972908933281 1.4899673556641355 0.3829420756213733
H 2.860561999433581 2.2852031371394315 -0.1403240199914452