13

C 0.8899153326250017 0.11514938707848694 -0.15963902686324277
C 2.3802531503215265 0.03750612458224025 0.10113689915450903
O 2.703880457434349 -1.1372322937598558 0.8350267497866217
C 3.360449909553533 -0.8125515845736901 1.9885825338480936
O 3.740456770229777 -1.6235612181248233 2.7708791535153248
C 3.4876378872623044 0.6646921209328296 2.0254353275055137
C 2.9268335180124856 1.1622393693769246 0.924838888993719
H 0.5610620111289668 -0.7712918283523938 -0.7151844969513755
H 0.648961980420166 0.9924755948916734 -0.7561225618115065
H 0.3455763257246739 0.1638431394648302 0.780336141827502
H 2.922856538158965 -0.009454963067987262 -0.8628303344800248
H 3.9609329390873502 1.1828882072914504 2.8393934780171004
H 2.838700681244933 2.1943848836747555 0.6428889661131042