15

C 1.0995552879928174 0.2414977465608861 -0.04563659472487522
C 2.5957005994033757 -0.031571044712124206 0.057489962126463165
O 3.360343626338824 1.1078451122941788 -0.33293413908067687
C 3.632687311860769 1.1154365220044815 -1.6897937815012412
O 4.457111904375397 0.04864692211433816 -2.0966829776417555
C 3.9746591803430626 -1.1366537922426132 -1.6592102541118
C 3.0445436201815474 -1.2424962802975072 -0.7069107824778665
H 0.840902467525248 1.108653738050388 0.5774716908206446
H 0.5270727928582659 -0.6227327684974593 0.30214495585384415
H 0.8037214179780547 0.44514382329530583 -1.0714933188562623
H 2.8528022686192673 -0.17928997877400715 1.1099115319306405
H 4.172364067596113 2.0324956620529426 -1.9166965697009124
H 2.6984595774264384 1.060472497800405 -2.2806775753563135
H 4.40596341342351 -1.9840130404641687 -2.1794660796949747
H 2.676300995752149 -2.2128971826978368 -0.4286143411297648