15

C 1.9178753226350074 0.9298575932252036 -1.0910196587161296
C 2.5649199836926253 0.19815562102772152 -0.1925676160292642
C 3.213728793384127 0.6993321649465466 1.0374645099121518
C 4.621331797164866 1.1656046154936972 1.0322095753556637
C 3.515262642041897 2.1641395437728406 1.2477166752590187
C 3.326830787551442 2.7053429759065053 2.6078638350718246
O 3.5787613431890604 2.0994547572724636 3.6188511412455844
H 1.491882637356651 0.467980963021771 -1.979105082635443
H 1.7865041124911265 1.9930775499887639 -0.9847767051389222
H 2.662288068017719 -0.8722024620908165 -0.35007702085257036
H 2.9207546354557303 0.18520620616491743 1.9534652719456256
H 5.140871648830382 1.219004425754524 0.08630842214869626
H 5.236609855155439 0.9494090877288173 1.906735422516813
H 3.290780566429354 2.845794858772127 0.4314033287680191
H 2.903153502740864 3.732193708071132 2.656666240146126