19

C 3.35367921893544 -0.7475664801759614 0.6208092576765114
C 2.261370214030569 0.046410779067368846 -0.0760478968241045
C 2.796952023857047 1.1147515926512848 -0.9938969859268333
C 1.961917898631127 2.317078904651973 -1.3738545128643587
C 3.184109624565972 2.4982706936350447 -0.540406565727284
C 3.067519013551272 2.9321131087892005 0.8934348393376667
O 4.245448670137949 3.095995388459895 -1.2211227862087823
H 2.9335176336425106 -1.5260715039345842 1.256949208646595
H 3.970660003080098 -0.09954795323222027 1.253225072154357
H 4.016304592079078 -1.226824169869746 -0.10779470841637165
H 1.5900337021316426 0.49408476089874187 0.6707020499553352
H 1.6301451207465913 -0.6384202472195402 -0.6635522028550482
H 3.4243009046865343 0.7428412110105702 -1.7912215498440194
H 1.003001750741135 2.439100184116725 -0.9005972202311269
H 2.023736952630812 2.6656647208906796 -2.4010218313935554
H 2.2077906449213915 2.4761417362500597 1.391253122568792
H 2.9602944522801216 4.016482315222535 0.9405141512213424
H 3.9624011987124885 2.666208185488987 1.463483887200004
H 5.068144468714647 2.743117150567426 -0.8743885753319902