17

C 3.012128531430148 0.31782157042760595 1.297375896944905
C 2.2312957370896167 -0.2522720434392393 0.127498317050839
C 3.006733118981582 -1.309867997620323 -0.6174055823280592
C 2.97172467822305 -2.7212638522612966 -0.1980574790563705
C 2.2648575469148367 -2.3106350088011034 -1.469170483133587
C 2.863739943382714 -2.7123281324860598 -2.7512896458107607
O 2.252581446078713 -2.965658302347528 -3.749347486221457
H 2.4267701062458773 1.0776547394945342 1.8252678868901222
H 3.9360312286961157 0.7869962333302033 0.9700437238200669
H 3.2631017616386258 -0.4636794682230819 2.020814698728276
H 1.9593567041063473 0.5524487908993491 -0.5683060407610202
H 1.290181055879331 -0.6907832677748061 0.47683642353706124
H 3.951881283448183 -0.9656000544233297 -1.0406641614817764
H 2.335002820465023 -2.99539551030352 0.6319155675180121
H 3.8762500629628636 -3.318812369365842 -0.29878914603491874
H 1.1765782041338333 -2.2759929320589416 -1.4540967790381345
H 3.974144538423748 -2.7564350749519724 -2.7311517983091