19

C 2.319041029235109 0.6049387007576127 -1.0937342639720646
C 1.8569672290390156 -0.39119227331856493 -0.0364891263950338
C 2.929742669279821 -1.3657097927825599 0.3616770890973686
C 2.581040003959327 -2.7014422584626585 0.9780122247755115
C 3.1305069514633517 -2.6414048543143145 -0.39386924668149165
O 4.413517210500621 -3.148424635799493 -0.571036505143934
C 5.062577598012426 -2.567121241902893 -1.6720430662675405
H 1.5217693152339777 1.2959931328171308 -1.3628231107621365
H 2.6533537165661514 0.09232963341744507 -2.0001787549253818
H 3.165726626837752 1.1920531437989996 -0.7239979167976356
H 0.9867773140727223 -0.9493457652498746 -0.4180144688422263
H 1.5021675937626935 0.1407347604225659 0.8511637996888936
H 3.8501090120402206 -0.9273684443241139 0.7379236998392473
H 1.5317609370656822 -2.9495910347930865 1.1071197344173758
H 3.2327727041751513 -3.0864739313807457 1.748870732429737
H 2.454632182687861 -2.840106590542354 -1.2289068692855674
H 6.053937113470408 -3.025202147401067 -1.7307373060525824
H 5.175085169443398 -1.4818095127596804 -1.5455791904388239
H 4.525454685134067 -2.7636810683778226 -2.6070272820035973