19

C 1.7362577260041663 -0.8563364269366157 -0.08362256219246336
C 2.5932230587704534 0.3281814001982226 0.32045663925743206
C 3.0741853314032985 1.1365447602969805 -0.856219525982511
C 2.1819070678413017 2.181760357551983 -1.4450421045420803
C 3.4165779884184144 2.5869942501764838 -0.6806455216116274
O 3.8121905491318566 0.4320143118882267 -1.8062924558164086
C 5.099861662720665 0.0644505893049574 -1.3767014744543926
H 1.4054789127308196 -1.422255653081551 0.7929165813701188
H 2.2791604319438687 -1.5297645137412603 -0.7424973773812148
H 0.8393665240756841 -0.5180902461094642 -0.6223350123788981
H 3.455390135020248 -0.014272401418030005 0.916029550098036
H 2.0304637384318402 1.0014922969345932 0.9829839134550349
H 1.2129665751586842 2.340494301889505 -0.9808183237941864
H 2.208396353208578 2.2902986854632235 -2.518317688341734
H 3.3027051309230475 3.0424129383660796 0.3047486664382302
H 4.2456176439566935 2.979175992119227 -1.2630264630686157
H 5.6093226621 -0.363958455907955 -2.238282245043249
H 5.059888435838596 -0.7017150593455933 -0.5829743718309577
H 5.6697512167543564 0.9212972954110631 -0.9991785381568142