19

C 0.6650620085806004 -0.16568614576076646 -0.2205958173123981
C 2.171421464663235 -0.033994346645867306 -0.05174694839185739
C 3.007941495559796 -1.1080593211547942 -0.721739912007306
C 3.386050691853968 -2.41308789790395 -0.04987228692451161
C 2.899596053474519 -2.7493586469529263 1.328806054637754
C 2.464243112486887 -2.4198363221268573 -1.2112521036614259
O 2.953720310666138 -2.9696180960188614 -2.3947067510057347
H 0.1473502332797975 0.6890537119222123 0.2506990808057434
H 0.2714879156710819 -1.0669756308910103 0.24592903710977532
H 0.38434955589164654 -0.18546065517293406 -1.2749570000111017
H 2.4028390906111174 0.000318524226683775 1.025065112442217
H 2.4765575312953723 0.937272564668143 -0.44377278449964014
H 3.7994143448312045 -0.723620575637601 -1.365080194039766
H 4.390228826419886 -2.7554491246122192 -0.2876660197992297
H 3.5227025075965464 -2.2838127339734156 2.091473538545222
H 2.921569151504453 -3.8329546638035543 1.4902483299692242
H 1.8757267104679334 -2.4122739039505197 1.4874570226876804
H 1.42222643540327 -2.632727518549091 -1.001108200781321
H 2.597749533241877 -2.459900225073376 -3.1335429208629497