15

C 3.601982148467842 -0.5676591125247262 -0.7921347670009499
C 2.426974002386066 0.046291384955693245 -0.038871577465529175
C 2.776762690006507 1.278681793991259 0.7081475090508635
C 2.3956750268051725 2.568564484824983 0.6085482037502253
C 3.106151092121516 3.294736362170737 1.609921724594596
C 3.8644003627697914 2.3839631902635197 2.249637730362824
O 3.6828296474766047 1.1538454837829222 1.7141656265759808
H 3.294586456541048 -1.4781917006790615 -1.3154581999726207
H 4.4139191676841625 -0.8244712901035884 -0.11363029748437244
H 3.994228724915363 0.12845370912517923 -1.531746780922841
H 2.020590695921877 -0.6979608922315934 0.6635131156976166
H 1.6245326035473628 0.29108020612045793 -0.7267459765426599
H 1.6869294395476453 2.9663616768253904 -0.10328364556024638
H 3.0505149708110713 4.351568773448034 1.825510034743929
H 4.562146326786044 2.440786810548515 3.068285545453617