11

C 1.0712559365708785 -0.10541954580737116 -0.03134317842657671
C 2.2742048750741204 -0.033386955298771205 -0.028396726814871112
C 3.6715930687499267 0.07024786022410216 -0.030844875363446423
C 4.513681187266176 1.144815915351587 -0.021977450565421067
C 5.837051110015369 0.6201348962978799 -0.024693446325407126
C 5.696245548121358 -0.7202331928806485 -0.01814203839106133
O 4.398426862397856 -1.0769228532456838 -0.023210542904651583
H 0.011641940613389141 -0.1686533402137918 -0.03482186660762057
H 4.209183519007989 2.180333701559267 -0.025403055920693394
H 6.761215888921358 1.1813384902434836 -0.01584599011801041
H 6.409930307463548 -1.5355036393516248 -0.011727463457200934