15

C 0.5858395861624052 0.5724924021266541 -0.11103219886978359
C 1.8730665168770424 0.8688826065038061 0.07725717511958141
C 2.835154268398475 -0.01643514615768087 0.6968710384010475
C 4.133016561040778 0.18424700103254915 0.9318807289448986
C 4.7154269222427905 -1.0140869687221634 1.5996822244812499
C 3.4898022500164285 -1.9463916781756228 1.6888945495433634
O 2.381943285213083 -1.2347353906991403 1.1066319983145347
H -0.08123189160943074 1.2689180174522674 -0.5809789202883191
H 0.18094814052130714 -0.38962945689073863 0.1961818613837264
H 2.2716545921917164 1.8276254568635633 -0.23802361164311592
H 4.672086646431682 1.0876859118062427 0.6802538340958605
H 5.130115297646911 -0.7925125632629512 2.584424386488776
H 5.531233267590167 -1.4600128844082214 1.003941772207002
H 3.2331407218166923 -2.1907322343570526 2.7115514138849193
H 3.619792205077262 -2.872688977241835 1.1235573827594083