15

C 3.004859016988182 0.9291335164681596 0.7781530434907881
C 2.382281265020452 -0.09962928802094553 0.21120843085615615
C 2.8865529984267218 -0.8001819512337586 -0.9998144987346613
C 3.2124204322303602 -2.2893386451650772 -0.7895146553765005
C 2.5976268711984973 -2.9137357594670874 -2.0177821119674535
C 1.8534349040927074 -1.9884066292869336 -2.618365920639248
O 1.8688416193468742 -0.7580658957391371 -2.0385708182559066
H 2.6203122863671804 1.385903408597337 1.682426651771956
H 3.9211625437168274 1.3334789805013585 0.3712219071494847
H 1.4654867596963275 -0.4889658387409433 0.6240789177655051
H 3.7583911316232825 -0.2761297107654962 -1.3995524013900744
H 2.7683780872443515 -2.675063070397362 0.13072129968076956
H 4.291567431846707 -2.4454120371053203 -0.7152443245860586
H 2.690872133161762 -3.938482113036568 -2.3216513394211384
H 1.2235335946039574 -2.06666386530445 -3.490623792363434