13

C 0.9352596584296097 0.12599224986987498 0.07344893521180282
C 2.137582290466714 0.0713779382312927 0.03519772942913546
C 3.5538692190983476 -0.0022933937604944256 -0.009575063421969784
C 4.341290859465796 -1.0705008480999918 0.09953734758673438
C 5.772882101589372 -0.6354738646169815 -0.01457571890245986
C 5.620712226144055 0.8779090830169975 -0.2125968211075198
O 4.211410000017234 1.176324544542585 -0.19588182751069377
H -0.12585959208182956 0.16931770753311232 0.11788136978635097
H 3.9908986433952074 -2.081695094293819 0.25680697701603794
H 6.282612951554255 -1.1175952340266146 -0.8478153515117912
H 6.347899571174635 -0.8772692454863574 0.8857215413750466
H 6.012638724598403 1.2145015239421761 -1.1724731346222728
H 6.095130598421678 1.4612580038251972 0.5759948733348077