17

C 1.0369289674450635 -0.24987071069436675 0.3247023106607758
C 2.548308664493508 -0.05688619728569102 0.2430845038922531
C 3.0721609423903873 0.904759766123288 1.2434170221442045
C 3.9429256165359443 0.7535698319089764 2.2452701371276382
C 4.1758020196498515 2.079506798446588 2.8973409118372677
C 3.0529926119860757 2.912850888448343 2.264205882390893
O 2.5945292208604904 2.176818736475117 1.1180795644590429
H 0.7015803822948218 -0.954278401470218 -0.44969761567420874
H 0.5259437696812092 0.7002245951987126 0.16619247456464478
H 0.7504286184776636 -0.641998193002935 1.2995393649379152
H 2.8194455348715377 0.30088900055530354 -0.7564970017002486
H 3.063899020820334 -1.0123471788671388 0.39160434175254505
H 4.443683254484425 -0.17376471215998157 2.484900128380528
H 5.16767156896553 2.475824315379373 2.676930512565231
H 4.087294629455168 2.0518937684570373 3.9946479054022808
H 3.3663756876789757 3.899621431261324 1.9377583556798061
H 2.200564615858808 3.018253321576786 2.948904774544739