13

C 1.7043300150457028 -0.47894841407058525 0.9345051148887351
C 2.358826840602164 0.16260633344313358 -0.040752061575482446
C 2.981311346906628 -0.4511503028694075 -1.1886150725990587
C 3.6361627801428247 0.20851830841630342 -2.1841247816597846
O 4.102816572497313 -0.6479243229657904 -3.1120729345102753
C 3.7340171838092333 -1.8826538836184183 -2.724424576199982
C 3.0499862277086263 -1.8337949733113545 -1.5599702972588216
H 1.2652911782857623 0.050170894264574065 1.7659392107426795
H 1.5939794046944016 -1.5650849400657527 0.9281872197666969
H 2.434040560638549 1.2429745737233608 0.021424620328150002
H 3.8454463341937766 1.25080932172481 -2.3456484984978325
H 4.029642331551381 -2.697150590793113 -3.3663118985105656
H 2.638643491376671 -2.6753349581701666 -1.0300046142031107