17

C 1.0470485350667629 -0.23104271241732088 0.051252449799097204
C 2.5663738547735324 -0.061762830826819375 0.1420012072278817
C 3.0327503117855854 0.4394379963329756 1.4626323145338713
C 3.8412634377143884 -0.15539772576421731 2.329127300000845
C 4.047396736383475 0.7130458466393818 3.5287948491530448
O 3.2767122439499 1.87082388688785 3.2788713275371677
C 2.6193143013236067 1.7633885899112656 2.02454961485744
H 0.7609910039242226 -0.6278050655039281 -0.9370812385253359
H 0.5231347011834291 0.7160187741680568 0.18700682901216006
H 0.6932439050614048 -0.9315029389040874 0.8039804368064576
H 2.890692857317149 0.6342628759867919 -0.6455444198032234
H 3.0557419035289617 -1.0099764120169707 -0.07810636829985862
H 4.315570927556334 -1.1213889767207426 2.2117931910383932
H 5.102060963448707 0.9965181546806093 3.6655893202647643
H 3.716264123060642 0.23369085852581453 4.460742836837587
H 2.923274077918582 2.5932517971253977 1.3664852997069925
H 1.5385353422241241 1.841088342062735 2.1710996787874057