19

C 2.6184683629906367 -0.4941073516986476 1.5142331766746582
C 2.4113801831944914 -0.07630172208715848 0.06651134376902976
C 2.932348434113165 -1.0350559179364642 -1.006474564304901
C 2.6477620968162 -0.48446638843601003 -2.3852892701665014
C 4.360945016336185 -1.5516642551423625 -0.7771502256279735
O 3.895901548439349 -2.8602684135520136 -0.421790777329141
C 2.550128358930672 -2.5128739613711875 -0.7941943348147584
H 2.212747116712638 0.26289655110869736 2.186582003322599
H 3.6789995688166 -0.6141728812152707 1.7632497421049007
H 2.1212570234506916 -1.4423828704312764 1.7476021495079586
H 2.8917026389331784 0.8922859500843695 -0.10047037500297218
H 1.337556179770794 0.0776934442598632 -0.11435501654997533
H 3.1279277644396175 0.48657623229579133 -2.5278668736879144
H 1.5726943759977519 -0.3489743842538126 -2.5346938512684054
H 3.0158888409588744 -1.164976234044403 -3.1660860423182493
H 4.940153979488387 -1.0920620793928841 0.03132182580449484
H 4.973347418261026 -1.5841199807906008 -1.6906355462584641
H 1.8355737031237307 -2.7442983282517854 0.006148536329586743
H 2.2418875248540453 -3.031227510592307 -1.7028356708170045