19

C 1.114927748383118 0.1505571941318396 0.39458397287995467
C 2.55265138572568 0.15345855913232934 0.9097149829824911
C 3.4838086308018203 1.013095860901985 0.08860874852154864
C 3.7815709024811253 0.5082073142487841 -1.2980803487194534
O 4.636498208538011 1.4892480998989301 0.791708837353456
C 3.6635424822815623 2.445502757752417 0.37657629504410517
C 2.9531252862279485 3.22361935492343 1.4348676302275718
H 0.47558194802001524 -0.46654406175856417 1.0269309188105158
H 1.0501407892731016 -0.24966030065410053 -0.6211179122264282
H 0.6998390324056493 1.1553352460114972 0.37327438752328984
H 2.9517236549475507 -0.8600385740759737 0.9133888289693957
H 2.5746732669038637 0.49994959082585444 1.9474210310768605
H 2.870916266571218 0.4747349622264488 -1.9121595711733277
H 4.209006104131769 -0.49252814716304955 -1.2587170265816985
H 4.50242432123069 1.1641432501765991 -1.7982516157726784
H 3.996346530908915 3.0544155132951913 -0.4643944528661406
H 2.588615202192722 2.582665565842777 2.2397113839280762
H 2.1019947689879994 3.7582062361093587 1.010050427011924
H 3.6325814221049026 3.960028581895447 1.87178046574299