15

C 1.014749065464966 -0.07484881621757308 0.08996603826832718
C 2.50387393954444 0.08492959059791981 -0.024470586727779027
C 3.102089156321723 1.0103287995779031 -0.7773086682483016
C 4.5936889093302735 1.1998438973234797 -0.9292237787354253
O 4.758390415229657 2.314388887926111 -1.8288615068229792
C 3.5258246084756752 2.724350950652189 -2.1665220100549583
C 2.522544908278178 2.0294361129172422 -1.6126882981341204
H 0.7481705528895597 -0.8962106939362895 0.755586773364358
H 0.5494484334585832 -0.2791028575989904 -0.8775803436080326
H 0.5398875271634376 0.8379249467076397 0.48325617974264407
H 3.121750350993938 -0.6050425791527682 0.5391000400621855
H 5.104975788524869 0.3332459495737129 -1.358029775451737
H 5.093825741948171 1.4588306390338932 0.01282903416904029
H 3.494215616564525 3.5550665862404784 -2.8582658057296513
H 1.4711121282350592 2.2135199097597185 -1.7756955201588618