17

C 0.8765500036662158 -0.2609427080283894 -0.19900087501895533
C 2.385433451523607 -0.10729090982732566 -0.06676708496111491
C 2.972375498695333 0.9576864765541843 -0.9879811723835732
C 4.506981230853297 1.0621854080410469 -0.8627251193984109
O 4.825842158948416 2.4220951246758915 -0.5028523302383173
C 3.650959666690537 3.0867613457319245 -0.4017987085011586
C 2.566010473186623 2.367883542334311 -0.6651428182538301
H 0.4984100182697849 -1.0552494619692216 0.45152259052607796
H 0.5976242625177444 -0.5145877077917933 -1.2188125965202947
H 0.35271138375500954 0.661571021623617 0.06815616803475835
H 2.8680836111673655 -1.0643163894826482 -0.27980795205239595
H 2.6437482327545063 0.14328969421703372 0.9735193552792306
H 2.6883675313297375 0.7052423276131162 -2.0197312998534382
H 5.034485646915221 0.840148968175386 -1.797041445910584
H 4.8972333247226745 0.41809170602386125 -0.07940978929647667
H 3.7346728400977067 4.128613796758747 -0.12125631676406683
H 1.547076218535368 2.7407115778794564 -0.6456249249514497