17

C 3.112040265201493 0.5464951449658303 -1.1381372949492528
C 2.549365953578118 -0.06176740713628447 0.13180811800666173
C 3.0967683571202755 -1.4356656694866916 0.4279049098826073
C 2.557819011487645 -2.1001184748172146 1.689579410659025
O 2.4032368987058073 -3.4710926312595243 1.3521400431472739
C 2.820021661352386 -3.606956704186517 0.01562810206298173
O 2.683777157633842 -2.356224676292239 -0.5820921719901264
H 2.692942762547801 1.5415120686185562 -1.3180550782466691
H 2.873158393876502 -0.08194272215078836 -2.002685023149476
H 4.2023703236802215 0.6441603460611204 -1.0862004293278447
H 1.4664897624083704 -0.1244398103895694 0.07736990909770221
H 2.786600036572953 0.5856260750277384 0.9864852671627096
H 4.194421212275387 -1.4148497832670401 0.4549181699809445
H 1.5742655356091384 -1.6903475159508856 1.971304451916617
H 3.2381866927356024 -1.9979033816248297 2.5379354419208733
H 2.173159996885956 -4.3208297923232255 -0.5068823474566182
H 3.8676776052291526 -3.94072563464895 -0.022279168117321387