13

C 1.0158303040396541 -0.14902409808689848 0.2760634580404666
C 2.2042099537878705 -0.0687682325273124 0.13619418278606754
C 3.6393522844456596 0.073637629046924 -0.04687157021957276
C 4.265214481148078 1.1367264033301765 0.8795170296982322
O 5.460934333623962 0.5400559725504299 1.3200582909716059
C 5.130445539604414 -0.8126199528158999 1.4170007461902816
O 4.34659097721991 -1.1184286136510075 0.290176570335489
H -0.0385751160672689 -0.23646273719371907 0.4060963723422787
H 3.8528644821110793 0.29209711433892344 -1.097618493674518
H 3.5997891507393547 1.3476903569220673 1.7242857249339836
H 4.504646169486941 2.0723232404123597 0.36711608623066827
H 4.556656859683122 -1.006735759903459 2.340945196892455
H 6.044819451242012 -1.4099200823154698 1.3904395267837577