15

C 1.0822006535304847 0.06636932380577659 0.10804998630972742
C 2.565590154056013 -0.0842987550098193 -0.03811605635075061
C 3.2115853143430395 0.14649489049861808 -1.1745138929821062
C 2.641785286612153 0.5897417738255466 -2.489099309474042
O 3.7558608027109095 0.6835525434842543 -3.3500439480639743
C 4.913616907303586 0.335282945189946 -2.6464689293257204
O 4.558110018115342 0.0176209450189088 -1.3239464730248365
H 0.767586034769046 -0.1726774313573853 1.1212902388557013
H 0.5247157829672617 -0.5895226575975453 -0.5660217128838785
H 0.745238250899669 1.0921680678790535 -0.09696505932940744
H 3.1451443314895178 -0.4031478536131276 0.8176004922283405
H 2.1419075800000758 1.5673396533839712 -2.4032170014648626
H 1.9243865085632867 -0.13060014238348996 -2.8843543917067955
H 5.615737011815045 1.17944599621057 -2.620276890513363
H 5.38878132024862 -0.5354107674553855 -3.1035281943031015