11

C 0.9768878074062716 -0.01822039407234799 0.02575437408022169
C 2.181686459005191 0.024023422637354578 0.05314125676120433
C 3.6066936545847024 0.09138234776955673 0.10640862007336303
O 4.344731217076318 -0.5939877878742856 -0.8896760303451743
C 4.3804683501468435 0.827212193056714 -0.9111914357154965
C 5.626081854125032 1.472906703095744 -0.5827536848576447
C 6.644940619825138 2.03216235321617 -0.3227123210791524
H -0.08244559560806732 -0.0651318335510124 0.006118228342470052
H 4.044769638682713 0.024836597395800103 1.1007557602440763
H 3.818377691540393 1.2749034460672208 -1.729869043047129
H 7.559154274676308 2.529383376411548 -0.0889143171066226