17

C 3.3051162616417664 -1.1393385558043598 0.476159997365689
C 2.3752890244544553 0.008127753424178628 0.09806482872262354
C 3.1183241868641183 1.14418341804424 -0.541639782981535
O 2.445609698133407 2.3926095744288918 -0.6432126441602646
C 3.5788779666930233 2.311110172997491 0.21853853802088277
C 4.761133726217372 3.08369246388585 -0.17451214985740665
C 5.554732716813704 3.70817782746638 0.685596299648203
H 2.748378528273123 -1.96207662986561 0.9236614961018346
H 4.064767281112544 -0.8102204505870362 1.194322632825028
H 3.8234787727258177 -1.5276003563547498 -0.4089190800488217
H 1.8541336229347922 0.3964775916216136 0.9846768858011754
H 1.6089850768758023 -0.3386369360704399 -0.5986160178719581
H 3.687534033420255 0.8870401728746037 -1.434780445189209
H 3.329952259176704 2.3369679518427544 1.2806192812576804
H 4.96832277084824 3.1237152779030577 -1.2427408536005262
H 5.359247870693488 3.698174186006696 1.7500866959603714
H 6.435785469638395 4.2527031663366435 0.347693235595542