15

C 2.2293371384883383 1.3746333888357614 -0.24928050848823546
C 2.416010643018885 -0.08953863044114532 0.10189098992574001
C 2.9077084428348687 -0.8991842892066991 -1.0603236188226155
O 2.788631355353479 -2.310372008835207 -0.9825487437218575
C 1.9966033533134102 -1.6276654939410589 -1.9428925450793837
C 2.2895369290266983 -1.858599108812161 -3.3307648289238405
C 2.515647463880735 -2.041174699347934 -4.501290288442758
H 1.8978251125778274 1.9509462844454581 0.6154758419276364
H 1.4958260143349833 1.504472036779818 -1.0449237967012721
H 3.174046102299058 1.819855744932633 -0.6021655126262094
H 1.4751916345025025 -0.5282410227470208 0.44946851490567946
H 3.128338597790352 -0.19455885857047753 0.9226988930059815
H 3.846751407607509 -0.5663245390190488 -1.5135749119542496
H 0.9267204054921028 -1.5996650867834588 -1.7083223508632754
H 2.7187532842267235 -2.2022025449180984 -5.535414691738736