17

C 3.577643381387223 0.04327400174217618 -1.187446686118809
C 2.4423859186671515 -0.007174940325613873 -0.16955208898776733
C 2.7965048781390998 0.6399466947959657 1.1535331069335855
O 1.7601636606910052 0.4043579437308322 2.108454714149897
C 1.3304276217174662 1.6191612351811981 2.6914633539580333
C 2.097616256428813 2.6872360588788706 1.9911851199490482
C 2.9404050164567685 2.135160057936315 1.126428472379383
H 3.308646939913697 -0.4706813303314039 -2.1056455466059862
H 4.477262856013431 -0.4268555952896435 -0.7944175449900808
H 3.8355846225773034 1.0775255773072046 -1.4546559431859605
H 2.1730989106889456 -1.0448768381876166 0.031186532519791647
H 1.5501078960814558 0.4827002134798896 -0.567013500285043
H 3.7261877237378407 0.18337385853337934 1.527842183183573
H 1.5389713621208736 1.604625437007649 3.777892165531521
H 0.24455615683845897 1.7239009904015317 2.5692451641772562
H 1.9714907385799423 3.7379727882239897 2.189047366156751
H 3.6349543932291164 2.6534510432611293 0.4836859108465124