17

C 3.211604043217598 -1.0488149117108234 0.837527030243263
C 2.607223113438671 0.06312856739661693 -0.0037327552011545573
C 3.2904095774865385 1.3826509720992082 0.20029630524516992
O 2.724108794738839 2.370584173318354 -0.614571153062814
C 3.07703794121206 3.590153401782822 0.0029987758764979605
C 2.9966790299719173 3.252984507333995 1.4919067584671113
O 3.1187379825478945 1.8382641331314908 1.53374788308433
H 2.7028976249319316 -1.996461495818834 0.6583095151804425
H 3.1245895859449 -0.8092657158145138 1.903858786268382
H 4.270722534603214 -1.191339622919845 0.6126155439115176
H 1.5465015288951909 0.19382003762229819 0.21751589272827945
H 2.686295175938192 -0.1777363187818143 -1.069624189412685
H 4.372278103435473 1.3148615925684 -0.0029922569400942446
H 2.378531347803926 4.360824402028056 -0.31005248531722773
H 4.096193790899438 3.8827900492628213 -0.2764671156845088
H 2.033219883785788 3.532108526647314 1.9295196577940121
H 3.792085896509005 3.7174821487607237 2.076321791690671