13

C 2.992676608262381 0.9486393194868289 0.6597814866589609
C 2.3219360462449585 -0.10392850815609248 0.22974072067301435
C 2.858678402686286 -1.0353498324672399 -0.7840275987532269
O 2.9344164962842885 -2.364520266794549 -0.2743281653882469
C 2.584109095690294 -3.1583024007938105 -1.3385171333962051
C 2.0453993330410025 -2.4309102938891174 -2.306892836557751
O 2.0184031051861377 -1.107221435131203 -1.9310153923557127
H 2.5805378010293234 1.6234198522211682 1.4111284495078409
H 3.983465369744323 1.1845210329510107 0.282293936973637
H 1.3241909354885064 -0.34274726939663824 0.6077218766676927
H 3.8684345337645514 -0.7320153839392248 -1.1175495401224649
H 2.7392669409155586 -4.223323960713204 -1.2451372021340577
H 1.6184709572596345 -2.6942681190519218 -3.256766871790785