11

C 1.0293598939417816 -0.03284012992316257 -0.06132846907438191
C 2.227036220997452 -0.029196304598042344 -0.09245316604939686
C 3.7015409147920955 -0.03228182969301934 -0.06942097695981773
O 4.223393329879629 -1.1724899957215418 -0.7434119002843506
C 4.603702847897734 -0.692677852682027 -1.9758177914145927
C 4.601257152904199 0.6239996352765493 -1.9826956183000135
O 4.2187561329411105 1.106543433588119 -0.7481875155620172
H -0.03131120285815759 -0.0385226336869197 -0.049861744664346924
H 4.064033109473482 -0.026471748792576764 0.9544309394213571
H 4.8666750282511755 -1.4229734731255048 -2.723254077753228
H 4.864443747695963 1.3507324947052994 -2.7307976737929804