17

C 3.100149997428956 0.6825253903482201 1.345887245881351
C 2.47734750860278 0.04968057835257757 0.1164517650123099
C 2.9373917590672027 0.5907022142149186 -1.224764235745288
O 2.3330421160800237 -0.10613315553515511 -2.284514290423424
C 2.9751370409274447 2.1259742648518247 -1.3650874776230477
O 4.3989171799219955 2.134826091215638 -1.2491732278320542
C 4.449506977959368 0.7098479889131469 -1.4275415331315804
H 2.7045283038208385 0.2190128016997318 2.246570554333495
H 2.8894404830457576 1.7541899804099257 1.4043343906589416
H 4.17904847211301 0.5574148590841906 1.3537540674738324
H 1.382503404787788 0.16808294291465567 0.1641113202526656
H 2.6724693517690157 -1.0259298046305279 0.10837832332284496
H 1.4195898087713714 -0.2882101906120874 -2.0468076754358826
H 2.491289953556522 2.7256612146930492 -0.5869574574078491
H 2.6378678940045046 2.451918978252732 -2.3504996926417094
H 5.107214526351181 0.22701320743189976 -0.6861664719009194
H 4.7557167731530585 0.42526169302158007 -2.435266245944895