17

C 1.0277058020182088 -0.32576848597407504 -0.4756416675611887
C 2.5156088381572994 -0.2441739300453207 -0.46295009736934023
C 3.332641471521719 -1.2619680605766193 -0.20315917880018472
C 4.800197503003266 -1.2159347656371489 -0.14833188883745776
C 5.582629599117031 0.07168728647712509 -0.11990538844514739
C 5.509363749017755 -0.7569619882590173 1.1110774419043712
O 6.687023253657792 -1.36772380601959 1.5116646217313707
H 0.5840063714899713 0.3554373183005924 0.26140772953154084
H 0.686341306624112 -1.3400685001900106 -0.25613743307447856
H 0.6243415216633029 -0.027919771229672794 -1.4553876435745492
H 2.94277164497527 0.7292091813423511 -0.6835118244289552
H 2.885359138080677 -2.2310581171229336 0.0009466550859497133
H 5.319476888918062 -2.029980419158422 -0.639087018645461
H 5.057036264182057 1.0223794277688119 -0.13648956210960594
H 6.53084411017724 0.07799823190546296 -0.6309667978066598
H 4.8735920407238345 -0.39736373647317447 1.9144881462889076
H 6.460108666519342 -2.191546217317754 1.9573718075631255