19

C 1.0163042226546715 -0.07538464190887678 0.1786696926714587
C 2.531223743009377 -0.10006007270416668 -0.015335857858154719
C 3.10102045555597 1.3043992373989803 0.08158237945050097
C 3.1564208887156653 -1.1003256971879714 0.9489988236349007
C 4.603984985492025 -1.097609237092989 1.345856906361223
C 3.557335477179672 -0.7707007989989255 2.3462584552769816
O 3.349676622252199 -1.703067654301086 3.368277942273154
H 0.5394279738409942 0.5762147596982264 -0.5581761340800387
H 0.7620202274265916 0.30218643651373456 1.1777149394584963
H 0.5828006424279482 -1.0791587835681933 0.07443858607439874
H 2.7267763202634705 -0.47003234744414363 -1.0275370301365625
H 2.9117897607481904 1.7576555846455955 1.056126080542759
H 2.6475733069966756 1.9438433489199507 -0.6727844694440105
H 4.180168975650306 1.314277780291687 -0.08836825467897355
H 2.7316605521980466 -2.097151273790132 0.8563396079761673
H 5.248142347923292 -0.3029145880993688 1.0023006011317603
H 5.079666700900394 -2.068632910987059 1.4508178832350107
H 3.4859420195690136 0.26292570415042105 2.6654454691738962
H 2.409780382310986 -1.7159272489674626 3.5685949047266434