15

C 5.187268963225462 0.5605484556491397 -2.091326560979745
C 4.461950535680353 0.2905787255746266 -1.178971491833968
C 3.5979530946209928 -0.06330157177982824 -0.06817366748080174
C 4.238771730011543 -1.0745528487405474 0.8724017808295229
C 3.2900160857619616 -1.6989470477197544 1.9024455501030442
O 3.3359126173170255 -2.975087974096931 1.2501719496465988
C 4.337229932827947 -2.5085396886429803 0.33592393807572674
H 5.8331400634246835 0.8127419013193161 -2.902770425908994
H 2.657651878665605 -0.4710545698238174 -0.4511805940922165
H 3.3383632020161746 0.8407319832944782 0.49547159354674875
H 5.167248838353792 -0.6746649419105675 1.2847875039467314
H 2.2720603097210033 -1.292191546368001 1.9241315026179344
H 3.6711600913820592 -1.7494667446272867 2.927620874900724
H 4.046532454987746 -2.6470277285139168 -0.7144180108805622
H 5.304299351768263 -2.997679373126294 0.5031758159565287