17

C 4.526897648541662 1.6208801042614744 -0.8294500778761534
C 3.6633728555517657 0.5559355727434878 -0.2390171468242871
C 2.853373758006542 0.7945770064851032 0.7860249672249017
C 3.776540582899505 -0.7745900722512858 -0.9008947730464476
C 5.1136539844213535 -1.5316395482517817 -0.8251018260823083
O 4.440479617595344 -2.7513801987052466 -0.47151683816794593
C 3.209454503623018 -2.0523559463575602 -0.27553219166376935
H 4.407246720494552 2.5735347217706703 -0.3026748624074063
H 4.282172212189682 1.7787330098196612 -1.8888788821375595
H 5.587656957014799 1.3412913999656106 -0.7981939564291103
H 2.7893479855515944 1.7734077292868848 1.2382132456914252
H 2.2147153246872127 0.023723374452940135 1.2083230826474762
H 3.463077042168795 -0.6819336402915049 -1.9491829675497356
H 5.767655925382812 -1.1876997597739918 -0.009674245835472706
H 5.699743023101466 -1.62629505718819 -1.7378669938078493
H 2.967181630331855 -1.9658010729017623 0.794424642866401
H 2.3777658757547298 -2.5327473754252967 -0.793944141439516