19

C 3.476366901448186 1.8035677936038428 -0.7879693224408005
C 3.2248038119957494 0.5042088312157552 -0.03903664727107199
C 3.43559427962987 -0.7395981024286794 -0.8816011989100806
C 4.858731714777373 -0.9291315204131465 -1.3228283226563406
O 5.098192495407655 -1.952430142370018 -2.2920194661437407
C 5.342123479948509 -0.5986445342678681 -2.6594493257468623
C 6.761793526282038 -0.2157759303717248 -2.9502928244326783
H 3.283988088746501 2.676586044118026 -0.15586687778562844
H 2.8368458751535752 1.8886829329553179 -1.6669427339904945
H 4.513971806102266 1.8797330700066384 -1.130136860892229
H 2.2000177131759253 0.5050299808609705 0.3402984805086822
H 3.8738149905324994 0.4630886775998916 0.846230093971317
H 2.7932235577980133 -0.7180901092588193 -1.7711604385530393
H 3.1391845002506296 -1.6269713674668171 -0.31088378977071224
H 5.600030031371488 -0.913499418857878 -0.520132097871178
H 4.603197678223348 -0.20401388995132483 -3.368380363208375
H 7.428146098316139 -0.631846520599442 -2.1926330904105233
H 6.866709954913215 0.8730029923550147 -2.950320088973065
H 7.069709807030372 -0.5925207979934457 -3.9182790473661147