17

C 0.8609866133891373 0.12160495424632144 1.8376162306040194
C 2.349891694261926 -0.003056469614624584 1.7642089700489965
C 3.061045527656941 0.0851269686529999 0.655286338503695
C 4.534295339225513 -0.04612272915362451 0.5993031306947757
O 5.214296571290006 -0.2986816275562444 1.8181990957031202
C 5.2320124115902535 -1.3185642908042374 0.8257865134235932
C 6.554718917429909 -1.6330699360136387 0.20616980474341892
H 0.564746787508325 0.9537705499802405 2.4874158890753986
H 0.4110323660751283 -0.7808428130746758 2.267822737280938
H 0.4185507770944882 0.2827019240214645 0.8521699148033874
H 2.8743532912261403 -0.16102183500313058 2.6963960653809966
H 2.5773094288644587 0.2732205261033485 -0.3083055332157723
H 5.041964165603138 0.6796496311476433 -0.0464380757332761
H 4.603635446037182 -2.166170662510934 1.0631607566979975
H 7.103633140402314 -0.7200577196010989 -0.03563412873066916
H 6.420076490169602 -2.2177144434725267 -0.7120030997224082
H 7.1648366527796865 -2.2300306130561793 0.8880695344245333