19

C 1.0920734888101904 0.005164639330522454 0.11291730530005074
C 2.6039399594398884 0.11539121179006945 -0.046452218505932584
C 3.0963151100899657 1.5423480837333405 0.18131815471520477
C 3.28806608263653 -0.8997899433849597 0.8288725608823357
O 4.699650028416205 -0.8435349876781925 0.9646894533371324
C 3.9010741675853042 -0.6216907967686245 2.125593870355349
C 4.000031700336999 -1.6548488230401566 3.211594791903998
H 0.58183783219397 0.6863470675158406 -0.5700879029232141
H 0.7902180332356376 0.2784066506280774 1.1282992282111086
H 0.7419305395452107 -1.002225262052098 -0.08970296959748084
H 2.859468454708001 -0.16657330546089202 -1.0782831232981622
H 2.746087220246643 1.9283518529642927 1.1386122895521034
H 2.7085908877853466 2.1984800961032778 -0.5992620728306367
H 4.187751145309718 1.5845104521894788 0.15772487992691198
H 2.9111453563700196 -1.9186912037310104 0.6817375694835603
H 3.9044203644574753 0.40925120368041595 2.4677803291123195
H 3.970696018401306 -2.6547773012626137 2.782707597612118
H 3.168766794934298 -1.5472606294468885 3.9197124822321
H 4.938722229316863 -1.544319153449477 3.766221597870709