17

C 2.162587977080854 2.60251706984119 2.4739040554614085
C 2.8822515475545383 1.976064249299554 1.54731834576116
C 3.0417046679108695 0.49996729155605024 1.4193305829977452
C 4.5060797529083745 0.03756037594621643 1.4695150385427123
C 5.153506995733105 0.28835385581063283 2.802898913922433
C 5.215027139786544 -0.7397580197808172 3.8317727075071932
O 6.364146598170979 -0.41184212568372713 3.056423242487045
H 2.080988637672274 3.6848296912305503 2.4912834278937908
H 1.6184914277345464 2.052320719456443 3.232168498817216
H 3.4169764494539434 2.578881452960554 0.7985226962151081
H 2.6181579447018914 0.1813093677526172 0.4686048969308481
H 2.472146638710624 0.004736193704764133 2.208950096655352
H 5.073763477019622 0.5621691383380992 0.6937475864259589
H 4.568321083699308 -1.0284766959921667 1.2456826808875976
H 5.171493431604495 1.3235218353939973 3.1263181769459414
H 4.791407788498777 -1.716686222610394 3.6298172098507826
H 5.272828310998704 -0.46456367890715705 4.87410793806778