13

C 0.8945191353288262 0.14209838581844542 0.004617458253288348
C 2.209083680347605 -0.021917746235685456 0.08245330392353574
C 2.913432389620054 -0.3463102392250125 1.268422915153298
C 3.548261653664777 -0.6228713036971957 2.264119675500613
C 4.2608686819849755 -0.9412035848616569 3.4590748463292726
C 5.258927906939261 -2.019155060621155 3.4950644712888623
O 5.664574875469182 -0.6654963517026055 3.493449074016061
H 0.41868593824977646 0.38414617772048487 -0.9365487583336978
H 0.24853681821163603 0.0295979422096555 0.8744267696139167
H 2.8239258821762734 0.09954629279993422 -0.8030727576492155
H 3.7488341856879677 -0.7033056018577971 4.382868760800909
H 5.460357577430055 -2.571633591479106 2.5906540547343635
H 5.414149131904072 -2.5493495078019763 4.435200868040438