15

C 4.390969450771098 2.6056888745511455 -0.8154915691894996
C 4.086726054968537 1.5275152218956836 -0.3924081406458158
C 3.7141258811738065 0.20808999090965083 0.09040270005214282
C 4.303078638532131 -0.943593922319721 -0.7390476167820516
C 5.8080926650519835 -0.9706589866703823 -0.7066060544559157
C 6.530619818996712 -1.8051523436534784 0.23515135217117272
O 6.420583700689917 -2.177414622363744 -1.1243844317003229
H 4.661238246931598 3.568527568315832 -1.1764787264751457
H 2.6259330305118844 0.12069941609740409 0.09345697503283891
H 4.0378371016258985 0.10733238183839008 1.129036902598748
H 3.971873052697618 -0.8413154369635081 -1.7834090386171872
H 3.9220997027508213 -1.8889975385099778 -0.36348644000364927
H 6.297309582558066 -0.06873171485165908 -1.0694495663536359
H 5.97444568027754 -2.427740311961499 0.9353413171555597
H 7.532466690742062 -1.525050849347503 0.5622798796321443