11

C 0.9814836857545891 -0.018699679337309153 0.06636530270040528
C 2.18954680782301 -0.05488591551767469 0.057475752703837105
C 3.5504571814649735 -0.09102635548829657 0.040352105854792715
C 4.757100830249653 -0.12797444311984646 0.026207801619769395
C 6.188717308190062 -0.17298321302904773 0.04268787701280299
C 6.945873300672326 -0.8546847015174966 -1.0110446935721624
O 6.885654994581632 0.5526807813239839 -0.960920485759164
H -0.08051094440098591 0.003719123158740961 0.07272961874285536
H 6.633021153524909 -0.11271288952840101 1.0339043968594375
H 6.393755183603106 -1.3123357401458149 -1.836093361549633
H 7.900775619423075 -1.2975018293098375 -0.7638672216906608