17

C 0.5235364086228695 0.5831562257599908 -0.6329701281309841
C 1.9170569304485527 1.110857470665121 -0.7889636946226606
C 2.9384160915510966 0.4198800049203027 -1.2702242489665656
C 4.330088337112548 0.9504666840281242 -1.4277007752190776
C 4.799471725578207 0.9044399382905717 -2.8528138776891425
C 4.737941557057943 2.0786469474647675 -3.7279319994047606
O 5.969333272795958 1.654242087746114 -3.1572268103255965
H -0.18875712727594351 1.1848397063991607 -1.2053031815951896
H 0.20731483754050045 0.6351478565413543 0.4060258430309489
H 0.4543828008990166 -0.44338718952156664 -0.9689288170491209
H 2.0745998398162904 2.1383686636245978 -0.4841438623570843
H 2.7747517153376795 -0.6088268166865617 -1.5860885652203698
H 5.029987339415755 0.35124182362266126 -0.8160513455181588
H 4.393282498222761 1.9841496512359074 -1.0544321065751785
H 4.7731482438195805 -0.07805877716203787 -3.3258388139728075
H 4.336074644223347 3.0088017706438155 -3.328592763781474
H 4.6466572008641736 1.9446697821220948 -4.794953487683559