17

C 3.745558123777402 2.36174469497192 -0.23865463634343054
C 3.226238437972683 0.9627238509188717 -0.20694658953948064
C 2.2062718441291795 0.5561642025247476 -0.9592480369280711
C 3.918684016350572 0.013860215442325019 0.739545764318695
C 5.350485407309553 -0.26523809615147126 0.3441474713105018
C 6.476375668002509 0.431751693454516 0.9395517101675667
O 6.159261492554322 -0.8941979062966164 1.3131216764992852
H 3.1640870035249207 2.979119568040133 -0.9240485154634612
H 4.792719805083567 2.386948760287942 -0.5613059496095735
H 3.7023954386040927 2.820135316243554 0.7507769556540081
H 1.6989507742327588 1.2389665037302726 -1.6335868675518905
H 1.8366635568895164 -0.45829938105961 -0.914729052131393
H 3.377843584438674 -0.9364723918030567 0.7696653213095564
H 3.924789599614331 0.4252818220037628 1.7557679867432088
H 5.480369362403237 -0.6612678567903967 -0.6614739022774395
H 6.289516211243299 1.1832816357429823 1.7086978765364735
H 7.410227102130022 0.55499444147523 0.38267123940656533