17

C 0.9564125026145581 -0.11747815483540869 -0.1324886642411324
C 2.4278654548319207 -0.30324312247328195 0.027037751440776678
C 2.830519301269831 -1.4668981017322942 0.8845995104846825
C 3.291194221210708 0.5238424000676742 -0.5660171078788491
C 4.7543113999442195 0.4751897042741147 -0.5242916799140489
C 5.572043118058406 0.9698452181352496 -1.6370524154548145
O 5.423625707464203 1.7497080533020632 -0.4661093975394517
H 0.49758686717854067 -1.005812400011604 -0.5754520681115606
H 0.720202200115099 0.7406472759883791 -0.7589113454776294
H 0.47448498366352726 0.03365577285941519 0.8417130174937999
H 2.3332648653032906 -1.389510472785873 1.8629064948502558
H 3.894256934503106 -1.5364052903569936 1.0556356477180937
H 2.4894139763855594 -2.404872633260575 0.44012886332732715
H 2.8941062405032807 1.3430528495426959 -1.168685665762706
H 5.21621627012743 -0.2728502281974731 0.12423673197704513
H 5.063978052936898 1.358035207759372 -2.5200903117305518
H 6.560439380602105 0.5470486894010437 -1.8056446621767253