17

C 2.702174728316725 0.46643682727711566 1.2734209394310319
C 2.8258149238626378 0.019805849207452264 -0.18389950534154997
C 3.252787190938615 -1.4045860949113065 -0.3415873681493727
C 2.495340037848293 -2.3435952791383743 -0.8998924136624455
C 4.617539736793223 -1.7205019222309883 0.17177728049305305
C 4.834265074780301 -2.5501544443909587 1.3603133962885354
O 5.071159775399928 -3.0583391082042657 0.05556085777196155
H 2.3881603557984636 1.5174782251078247 1.3302323963439344
H 3.648020044494631 0.37852650883375677 1.8077125497709179
H 1.959136516744642 -0.14197110430023369 1.804700141967817
H 3.554075007051122 0.671942097582191 -0.6897553417028125
H 1.8761283773974384 0.16938495894445896 -0.6987411679577966
H 1.5000644557334468 -2.109948641391137 -1.2721806036834136
H 2.8507822025143565 -3.3579317191562223 -1.0057069599604334
H 5.376521719948504 -0.9735005593073445 -0.04933005436595188
H 3.971649704083852 -2.9758177671222885 1.862142926811379
H 5.722553500645885 -2.3952465625721935 1.9759362720735014