13

C 1.0185219890486694 -0.19158232339371278 0.33684276257459567
C 2.3356704079308135 -0.08272286632100431 0.2683115507919498
C 3.0997389947691953 0.20382531560127196 -0.9989173941820296
C 3.4434653466506706 1.6121714428552054 -1.1235912514699782
C 3.72030485096619 2.777933594813371 -1.2217603171555078
C 3.12231306827206 -0.28095465124315544 1.50576031209064
O 4.318463181811375 -0.30345985174244366 1.553327825570869
H 0.374829689801773 -0.08084830665496022 -0.5358220088132338
H 0.531402858454012 -0.40194475357326703 1.2886461610394568
H 2.5137641531325103 -0.10216296415330825 -1.8601539290654692
H 4.021911764209797 -0.3810637849463855 -0.9908779890442476
H 3.966745665216194 3.806561799860171 -1.307075555511573
H 2.501276892133038 -0.4368463314270493 2.4119421595835875