15

C 1.1086040053820594 -0.0502335111743763 0.5609274844054334
C 2.4035075655440354 -0.03379948305728198 0.2215004493749932
C 3.0207252152219612 -1.0149100542423777 -0.6571150115362167
C 4.317622501138096 -1.0055434310362374 -0.9778514221591676
C 4.966575337352554 -1.9792613769510814 -1.9051369990501048
C 5.3016605702556285 -1.3078357325513856 -3.214233687616165
O 6.4216423083842065 -1.1499394963402851 -3.6295275694694493
H 0.6924111150517326 0.6926970841032581 1.2162978224727803
H 0.44141216243385034 -0.8121740335549759 0.17475218640071652
H 3.0522860637379643 0.7408379428074112 0.6198434147456766
H 2.373085311336296 -1.786739540587904 -1.0477233583121233
H 4.957358221227834 -0.2251167035501484 -0.583757476784927
H 4.271489751038081 -2.8013093155419226 -2.1145504427875688
H 5.891973475909388 -2.3841571956987764 -1.4786918073644912
H 4.428130512754986 -0.9460065138271312 -3.784170545696648