15

C 1.1540481192015528 0.4397795561231572 0.26021363125683944
C 2.31456956656299 -0.09311342465086576 -0.08767828354047998
C 2.8878579873504844 -1.3320664887850495 0.4575209703720184
C 2.1499673381861046 -2.402267353414615 0.7331480683877504
C 4.384569638281239 -1.3386185636801995 0.6757993435951053
C 4.79383765822155 -0.4445388225907996 1.8187353940516127
O 5.5919052253352515 -0.7562373447072273 2.664024905253508
H 0.7844118118790774 1.3482110052635774 -0.1965741159069946
H 0.5350042488220981 -0.014777751693148907 1.0300499589859664
H 2.9224127491718592 0.43358569998130375 -0.8307258610298118
H 1.0858243057541568 -2.4140853562668445 0.5314949640301588
H 2.585976285395933 -3.3012220492862987 1.151351478094034
H 4.878093335741956 -0.9410882851047253 -0.21535430705771674
H 4.761507057422538 -2.3419518406376065 0.8701663415256436
H 4.3194925910321995 0.5598671263102972 1.8355082952728918