15

C 1.3755384426721844 -0.8527106126902988 -0.054942671590563145
C 2.328797961625146 0.005045420801546422 0.29745130239407763
C 2.90050116802712 1.058786981369596 -0.6013566757308297
C 2.6794254442369643 2.4400916161424386 -0.05050644049058403
C 1.98969745448162 3.3832068696281232 -0.6781677376577552
C 4.40012057082808 0.8183549532218619 -0.7304107792900578
O 5.160606377072133 0.8451025967651337 0.1973954412788284
H 1.0052803263982701 -1.5961899589779522 0.628917197947005
H 0.9406436020030698 -0.8360176504065476 -1.052269235329181
H 2.7540919831332302 -0.040566740033363385 1.3008334590150323
H 2.442671013801082 0.9852721313929594 -1.5918822711774263
H 3.1357734863435476 2.6411145641532356 0.9192304242103584
H 1.5350187890513192 3.220175705851964 -1.6354646122625949
H 1.863760044726598 4.365424202981497 -0.23695630005353882
H 4.76352587110294 0.623582205990009 -1.7534380058369412