13

C 1.3252264189676333 -0.7017104358546454 0.7767828589850506
C 2.2320399000920395 -0.025784921315807396 0.10539383232837014
C 3.028084746661013 1.1132924473735142 0.6830701760576784
C 4.460946045699293 0.9268555283212491 0.5555005044335292
C 5.649857028781266 0.7472764059779714 0.4142397275145412
C 7.067416720937603 0.5623871526735343 0.30246604367752533
O 7.607746247042168 -0.03500254522055843 -0.5937343701826103
H 0.7648159149951097 -1.507764938655129 0.3155019948427041
H 1.0893599792670448 -0.4793680233301709 1.8113669368568583
H 2.459012504034488 -0.27163865229587897 -0.9259721305246098
H 2.7729590538370283 1.2560490683955665 1.7428608161393089
H 2.77337544043057 2.0473430259365575 0.1667902493772818
H 7.657236339867523 1.0230146126293553 1.1180807656535992