19

C 0.8058924594787163 -0.5805237919122769 0.48759083890053656
C 2.2634316003621198 -0.8656151479235932 0.5617955871289173
C 3.0641332689966463 -0.992388878789055 -0.48694797792298333
C 4.535260529462972 -1.265505334957259 -0.43287093119570474
C 4.959251690624309 -2.5093892376748665 -1.1989537022733545
C 4.434705884163695 -3.7956522750920585 -0.603014576928511
O 4.882058892506694 -4.9447333220448035 -1.2918562708557042
H 0.21840865393301465 -1.3721365347692094 0.9772217849748838
H 0.4569200645335256 -0.48394726165377333 -0.536775948841315
H 0.5563974181054951 0.35131273117201517 1.0176056818110049
H 2.6828988955946373 -0.9779460799639519 1.5594108039442598
H 2.639985869950175 -0.8768653096464449 -1.4834097378729325
H 4.848503594712401 -1.3552221322144118 0.6158675562951799
H 5.074747785884631 -0.40579596142258056 -0.8408518852159365
H 6.056182276350009 -2.564044810652349 -1.2481665229035406
H 4.611207035513852 -2.4306020532869477 -2.2438452075632456
H 3.3378221257074 -3.7649036261469617 -0.5448648494001657
H 4.80278897183858 -3.909021057400928 0.42704076583122297
H 4.54142707377666 -4.913036473268565 -2.1928440050366227