17

C 0.6755860132467656 0.24370709776032148 0.8676250468316783
C 2.1489088532785425 0.12518581573896598 0.6849662694672242
C 3.0643083259643484 0.7560833385324528 1.4217301518371266
C 4.489994968950472 0.6122888398384111 1.2247996664652034
C 5.423520056881338 1.2290696509967844 1.951369049670618
C 6.888426158840813 1.0776222179036257 1.7360673025590059
O 7.532402821958709 2.3115445543160473 1.4708309854302177
H 0.220659089229251 -0.7265270697392233 1.0870744915935922
H 0.19752296626180457 0.6166588900834298 -0.039939719404059895
H 0.43132356674439665 0.9267468564180935 1.6826393607123413
H 2.482524310740903 -0.5383631736292627 -0.10489600812290424
H 2.7445760049415346 1.4179597314787942 2.2201113950173945
H 4.81072436071132 -0.05298691658273341 0.4157160821438839
H 5.126830628114356 1.907247114698137 2.7558792065272226
H 7.078933581904186 0.35129476870260606 0.927501477435909
H 7.377727077647129 0.6943004831149483 2.6372729430141777
H 7.066094955874939 2.7283744841146094 0.7460389171859315