15

C 0.8448308150516716 0.16276509397547878 0.27534040518028763
C 2.27335896580383 -0.1377031569459586 -0.004773219217455807
C 3.3054591294105147 0.49758351121699823 0.5437172200985918
C 4.731533510076692 0.25674458698416175 0.306740237346796
C 5.261265409002543 -0.6593230476292092 -0.5076663900918956
C 5.6661754580263235 1.1326784170775732 1.064607886321685
O 6.865615145165964 1.0856799601959688 1.0051842784847707
H 0.33409522718167634 -0.7182212221092124 0.6772718879584798
H 0.30919975154625956 0.4378459346598035 -0.6395242373655045
H 0.7354794509783965 0.9749975631012653 0.9921679273637757
H 2.4639636701984338 -0.9450352997033533 -0.714875815026858
H 3.081880831857255 1.2997926210414112 1.2522956744350933
H 4.658691438454092 -1.343940040617762 -1.0968428131795065
H 6.343992254081374 -0.7302898897616669 -0.5809220469475918
H 5.168882214845267 1.878242544229967 1.7194056349449272