17

C 0.7900612688572134 -1.4020540333985017 -0.3248609299497013
C 2.2848288627149196 -1.3006734932056208 -0.32857192432046844
C 3.0159835649862945 -0.8247076940563965 -1.3258663814294893
C 4.5099531123286605 -0.725862227220479 -1.325430382095977
C 5.074545443475275 -1.6013535038440205 -2.4356659206495834
C 5.32695677277468 -3.046271008129862 -2.089055659943436
O 5.276775958240591 -1.160420959666188 -3.5395990463200775
H 0.4654414616026332 -2.4348188999326337 -0.19219157210771337
H 0.3701783083009464 -1.0374130395330532 -1.260700350628347
H 0.36018927767578773 -0.8280381014581272 0.4939713464815985
H 2.793464321442278 -1.6504857511988795 0.5740728869773635
H 2.5197693776536996 -0.4708108573034124 -2.2283652768992406
H 4.901066617789511 -1.035631209835554 -0.35969148698102366
H 4.82743974116921 0.2928388168869282 -1.5382428060881677
H 6.187423877388593 -3.10135461802409 -1.4074111424676523
H 5.542299962015118 -3.6252417659439145 -2.9793528788133514
H 4.468366492556664 -3.4679295431882045 -1.5550777438639285