17

C 4.2500839634865955 1.9057677912376183 1.1168047450338559
C 3.4041991084848573 1.0754105607762574 0.20727388488207593
C 2.451159266301622 1.5839672034340824 -0.5618084617392283
C 3.710871324487805 -0.40285101317537647 0.1912454621465734
C 5.027918240322378 -0.663426816538404 -0.5119426209998765
C 4.957571600900546 -0.8692916710839567 -2.005619421386505
O 6.068496258880736 -0.6894587260104411 0.09326614263557957
H 4.018578822970063 2.9651503484101225 1.0125031573812027
H 5.312884375067015 1.7428568599341319 0.9255100384834705
H 4.081573762395219 1.6104666594212282 2.1662738447660552
H 2.2426194091180216 2.651900597156994 -0.5566697276083157
H 1.8363478720557802 0.9708417553696865 -1.2070409498134216
H 2.8953141238797366 -0.9451224522872046 -0.30715801354054456
H 3.804729554568709 -0.776539418416719 1.21945644443476
H 4.457349766213858 -1.8219835401040225 -2.2104313502065853
H 5.961304897170525 -0.8910985069079447 -2.4342385554491375
H 4.350480686612607 -0.08692210059202547 -2.471522198663679