17

C 1.4759310831565502 1.1460950744916287 0.8567589918486064
C 2.946810509096903 0.9113926490122373 0.7532231650956431
C 3.8291948884457665 1.7249751911426623 1.332636159127259
C 3.3210758828666247 -0.296918694629331 -0.052364895463333685
C 4.804746312304718 -0.5785247066299481 -0.19448448291808368
C 5.116144278513457 -1.8037040213144573 -1.0042297173649726
O 4.2995049451480485 -2.5184720986126568 -1.5082635249152394
H 1.2538914883972343 2.036837336551607 1.455318504921824
H 0.9834102095915347 0.2952980917415825 1.3274365989967245
H 1.0242737902666619 1.2768698489478554 -0.13532936428404477
H 3.507660431729869 2.5939456081829557 1.9016989019161148
H 4.90651463467535 1.5752762511916418 1.2564350969720515
H 2.876427972908199 -0.2140834429827817 -1.0449588613556389
H 2.8317971238298587 -1.1768641433829117 0.3844066975191968
H 5.293330186013191 -0.7090714149549106 0.7810807224234683
H 5.338154976582917 0.25663487759524606 -0.6549193059684173
H 6.2077119532192535 -2.022095273881013 -1.1065411529129219