19

C 0.7000709902195581 0.06069377178743572 0.35235178136051
C 2.075699713810789 -0.12373673888997547 -0.22689372140708308
C 2.1097473926260606 -0.30443347817970196 -1.7130662584152567
C 3.1618359920700336 -0.08531214361066182 0.5592482286608124
C 4.589180216211024 -0.2614532240755713 0.16498092203429598
C 5.115464376568423 -1.6194380801707153 0.5952469993941061
O 4.429776351423876 -2.6745657764868795 -0.03817715051785452
H 0.20727076318671636 0.9270164767242459 -0.08749618702191997
H 0.7318352814699921 0.195754726382137 1.4350765522372397
H 0.06658222056213496 -0.8110099633254084 0.12877917517566617
H 1.4745685555120425 -1.1491786151948515 -2.0052711900023716
H 3.110975314618515 -0.48984570001589517 -2.0952198286958335
H 1.701625171638589 0.5821335328006504 -2.207427254050419
H 2.9928680555068343 0.05663044049574528 1.6335625700261898
H 5.195541220716069 0.5176367289308704 0.6604776973617207
H 4.7281989555786 -0.13889788247170845 -0.9038207751875341
H 5.0710139396700145 -1.7177900385856923 1.683391229030411
H 6.164876554923085 -1.7288005277283038 0.29734413151406996
H 3.4842263402910945 -2.506002738628905 0.09478839589521476