17

C 0.8622224245722535 -0.128667560429191 0.026249342395053804
C 2.337154282203289 0.06503685352743857 -0.1490068880319126
C 2.6860989944260876 0.8296782695451305 -1.3777540313217238
C 3.174166459104631 -0.4441715571668682 0.7761346091860905
C 4.647198393007979 -0.44362400378252337 0.9155084035382967
C 5.558251730990238 0.21569641389054722 -0.08936536100819029
O 5.118299176691319 -1.001099785481324 1.886305223264956
H 0.35329257243108064 0.8397680275800038 0.07703648833464471
H 0.6292821957697854 -0.6901342345043217 0.9339900382625301
H 0.4388506187268782 -0.6625404270497468 -0.8306757617788871
H 2.2877584316253774 0.3100321783949304 -2.2617937747522294
H 3.7514163733029946 0.982420780371189 -1.5285097272806676
H 2.2021547753938977 1.806465060209351 -1.3563337136611984
H 2.7230246494042727 -0.97846184690599 1.614722132708778
H 5.357456141784736 1.2896529729941326 -0.1656660918197974
H 5.445890744997495 -0.22507590928225613 -1.0834883650301983
H 6.590869244502516 0.06987265577925925 0.24681073385381505