17

C 0.8424040952595431 -0.24862763434796384 -0.07957249762728169
C 2.276685682172002 0.1728553399237646 -0.00411075912624396
C 2.5149555850348846 1.6162404523373488 -0.31742084120583225
C 3.222357580363107 -0.7084529591130769 0.30767964515585
C 4.698068399985284 -0.4708973945273787 0.4376913596952349
C 5.0827526721668805 -0.4617208650343079 1.9029760380487886
O 5.820903937976772 -1.2485126046485167 2.4214152489677163
H 0.230954085547958 0.33660817905978446 0.613982765515321
H 0.7091941413720956 -1.301131335677851 0.16293110035296632
H 0.43203146014071714 -0.06889623716534263 -1.0737519309698562
H 2.0001027669076517 2.254892856599144 0.4016040260428286
H 2.1100100476780197 1.8673343705036203 -1.3053573085548662
H 3.5681333204721137 1.894297108839297 -0.3106068286174679
H 2.906856884074416 -1.736817078105507 0.5205121702836627
H 4.9836722413196854 0.49222092125757644 0.0158077797031064
H 5.271202802189382 -1.2570792578878474 -0.05351459239581388
H 4.604532637985952 0.35352887894929447 2.4919498429459432