17

C 0.9970447720684013 0.1560154562343159 -0.09398819249184552
C 2.5191183224379943 0.10241835549110598 0.01335900998181471
C 3.1329647479798863 1.4920292655461183 -0.08796907008510065
C 2.991308080130976 -0.583124383514189 1.278630251212064
C 2.244195513286594 -1.2579903756600372 2.137857916580545
C 3.032085796822792 -0.7922401795061144 -1.1050710778147215
O 3.8963640942551647 -0.5056006250308421 -1.8904870395712354
H 0.5758954915691717 0.6911582769802223 0.7586093573907313
H 0.5554170464478755 -0.8476197908737617 -0.12308292268710608
H 0.7091446573151694 0.675717578179262 -1.0121233162912948
H 2.7891881340574596 2.1281083947669357 0.7257627029571813
H 2.8674585363378378 1.959899866856733 -1.0382801082969437
H 4.226112173932956 1.440691681350118 -0.05100451380280101
H 4.054964259681376 -0.5057698668371315 1.4615813775242181
H 1.1647020874578247 -1.366115305936709 2.01593512137645
H 2.682858681569056 -1.7170079331913677 3.021547408471166
H 2.5205141708849275 -1.7868168716359925 -1.1497362383358913