21

C 0.9022775407249798 -0.08463343205920607 -0.028054137984285927
C 2.426165551599734 0.06763762501519673 0.00857734735982514
C 2.872043740436704 0.8212971915019653 -1.2535637463893874
C 2.8072532878486687 0.875025253852317 1.2494824560112747
C 3.0382405759175732 -1.3363862119672263 0.050051603364975134
C 4.550261644509855 -1.4267967530971144 0.05985776565473956
O 5.002005576276854 -2.765449756233004 0.048150766051195816
H 0.41525557040178707 0.8890162438792806 -0.0566529778603844
H 0.5398631855219066 -0.6111514394811878 0.8606491201385069
H 0.5818578803158228 -0.6437542065705086 -0.9097131604583366
H 2.3630652879495426 1.7809600796060978 -1.319432121626628
H 2.631781299170996 0.2427198019767373 -2.151942983561602
H 3.941299859026027 1.0134445670292878 -1.2523783588796333
H 2.300996474197073 1.8431089541581775 1.246269688849477
H 3.887593702550009 1.0647039015950188 1.2917995930225252
H 2.5256021707343868 0.34990376464330963 2.1627403612546154
H 2.673312345588625 -1.9126089640680246 -0.8167697460585517
H 2.6549539323388847 -1.8534481287938678 0.9469872585346291
H 4.966700159688884 -0.8887451567704662 0.9170265240995131
H 4.975697892638511 -0.9703947754871229 -0.8451634702034082
H 4.641364854710033 -3.212363600086572 0.8141292699407563