19

C 0.9557316205252915 -0.04330290620956602 -0.04631405182504452
C 2.478650176034701 0.035978347380709035 0.05542649229218903
C 2.963101051602544 1.412155791293739 -0.4140062965954345
C 2.9083998582037003 -0.16728014600410657 1.511257620575458
C 3.1179805598405737 -1.0901227283461747 -0.7846771874165287
C 2.7901103296264633 -1.0361958002019738 -2.241647615645037
O 2.173498940139103 -1.8792533851860422 -2.835117920828467
H 0.49531178731865017 0.7248898251825439 0.5763547070934855
H 0.589846960288764 -1.0142951598053696 0.284725324065226
H 0.6169674053082183 0.10551318983914917 -1.0729947753112876
H 2.5682469025706585 2.191731173029728 0.24242827418601895
H 2.6194898369747115 1.6470054070531117 -1.4222897594045656
H 4.050985103954671 1.4826539547455106 -0.39418549072510906
H 2.4633702679143226 0.597195046969261 2.1548359647048416
H 3.994574685687598 -0.10509708337949687 1.620702738184657
H 2.576860182421756 -1.1440074584652962 1.8822603982607473
H 2.8091612035560303 -2.0581238305852323 -0.4028543105982694
H 4.207873141200296 -1.012723246119403 -0.6824245659037553
H 3.1755417662533114 -0.1491142578978817 -2.7942925498832776