21

C 3.128107997014094 -1.2853672347022225 -1.653172848056123
C 2.7400357414531173 -0.4676570338770711 -0.4194460927080996
C 1.239417358026523 -0.20204011012901388 -0.41819776984464285
C 3.212651482635649 -1.0902066037884672 0.9099040813739849
C 2.6572672230763965 -2.486905393356266 1.1804387480685388
C 4.729318761292881 -1.0775977141621544 1.0161767600744613
O 5.20092114880667 -1.4315213410685286 2.3017868982445484
H 2.831053091296214 -0.7612107504496269 -2.560703754734103
H 2.632987016837995 -2.257504794489155 -1.6590684318648934
H 4.210624858222146 -1.4532967026674029 -1.71094975964177
H 3.2445361198534854 0.49904955237600346 -0.49366064394159204
H 0.6652716584201744 -1.1214927464441566 -0.40230084232896907
H 0.9460509664762018 0.34938320822482816 -1.3198222822605912
H 0.9476099524667821 0.3928140098889961 0.4530956799631265
H 2.8352966801281307 -0.42088765859662713 1.695325740956725
H 2.9770671912253466 -3.1961793155604057 0.4188084615320739
H 1.5684097078162604 -2.4871271829968724 1.22566581579446
H 3.031638435330451 -2.846214381803863 2.1422961863828576
H 5.108369859096992 -0.09306645326831536 0.7176386612994764
H 5.164430864432709 -1.8219635785038337 0.3420554933004053
H 4.863746864741285 -0.7831180953997269 2.9266085573672487