17

C 1.000423687256258 0.045108406292231965 0.11183093729462969
C 2.527341701722376 0.041553845233687686 0.09947509071346998
C 3.1016801491044768 -0.7645837684158038 1.2603689544464791
C 3.0371644430192832 -0.45149363462886066 -1.177690034347378
C 3.4389956555248036 -0.8796270321825675 -2.2251308424905587
C 3.974903471235342 -1.3934152209028403 -3.487651502528416
O 4.940444085350311 -2.403383043412848 -3.3251421070535843
H 0.6381008939902881 0.4618941089121677 1.050265658556652
H 0.6190211916518111 -0.9736834714190046 0.014977583367089795
H 0.6003207173436027 0.6401545625290532 -0.7063084788517425
H 2.8743948216818276 1.0831055368766282 0.20637550877286404
H 2.7822771464265807 -1.804994700668942 1.188513566426007
H 2.7402964932968366 -0.36301059471772534 2.209907274377571
H 4.195277708404425 -0.7462307578050609 1.2617593711371102
H 4.369402455923897 -0.5540297869429155 -4.076499888457474
H 3.1668740664690884 -1.844102048511175 -4.072995375150338
H 5.579647094590218 -2.0984570001033016 -2.672871936367749