19

C 0.9970228934137588 0.14951211516629165 0.182878893285586
C 2.507026279140093 -0.03376196428627728 0.1238122631010427
C 2.8717809251018283 -1.4776844312836415 0.4225505606219062
C 3.0364515233992706 0.4355297307600053 -1.2338589233218866
C 4.554822423665796 0.4422691031021668 -1.341398605044384
C 5.087758874117124 1.0163008899899955 -2.623141984856109
O 4.414276631117574 1.439780952449961 -3.5198864431444497
H 0.5985209215733974 -0.13540773065463052 1.151178072991503
H 0.4964287317078538 -0.4630781498148534 -0.5754695121802088
H 0.7150615792879025 1.1887982115549742 -0.0010121902595910314
H 2.9535188604484177 0.5970486660389619 0.8950853300563434
H 2.4690194793034688 -2.150431245158614 -0.34318745747557755
H 2.4634719426792775 -1.7917471796562334 1.384747467125151
H 3.952013555079348 -1.634947494761667 0.4648413184195938
H 2.677067719315843 1.4432464274445662 -1.4383410942476362
H 2.625628159662047 -0.20062043413918898 -2.0265539257048193
H 4.980782960691027 -0.563016603276683 -1.2526856942318583
H 5.009915193568523 1.0093908207787545 -0.5208694788329409
H 6.195546076982652 1.0255649629498842 -2.6948918248001115