15

C 0.976807699311322 0.3638007593841962 0.09824665964902657
C 2.4696545746812335 0.1046686535502533 -0.04968805958187992
C 2.809921582664413 -0.8547188510060365 -1.1836094242735307
C 2.2758804677740487 -2.1912760453793023 -0.9664567991460292
C 1.8341378936915291 -3.2886590004390817 -0.7716007811381075
C 3.1890224216490495 1.4211584656774188 -0.21930608826979434
O 3.9323769954469165 1.6923595998614436 -1.1212281877298216
H 0.45303179858104237 -0.5733386241033062 0.31349730705846607
H 0.5592879814807624 0.7926150122153844 -0.8174006659950669
H 0.7701219624059857 1.0540259680666781 0.9203275846491259
H 2.839656912834501 -0.31245605785628583 0.9046181091493984
H 3.8942926534513296 -0.9128976406312361 -1.300659765206689
H 2.4301523506999057 -0.4545152578046559 -2.1273289220406473
H 1.4366596265204432 -4.2604126387701875 -0.6009964804270345
H 2.9799874090312257 2.165245836888158 0.5818282049070318