15

C 1.0232016986431962 0.021130425348299606 0.08318235713150615
C 2.475654554697371 -0.023174219822821054 0.038314324594973324
C 3.6775647485541763 -0.06876392212836664 0.007022130731387152
C 5.092906316590813 -0.09020498752139143 -0.012196118055487582
C 5.83751674404571 -0.7845282459841293 -0.8746289951991438
C 7.329557265200614 -0.7866113538095879 -0.8558997421834211
O 7.863040182753585 -2.0930945553559908 -0.714446070383488
H 0.6775277537335924 0.8162818437509962 0.7436258687451065
H 0.6142276081238043 -0.9244665302026813 0.4423210420385522
H 0.6142132404238593 0.20753621319880675 -0.9188002506021911
H 5.599688582244704 0.5118255030734223 0.7492744812859112
H 5.368345594124054 -1.399728012911124 -1.628353677111385
H 7.693486719966189 -0.11112683388796338 -0.06805954437604958
H 7.721994135961359 -0.4217212105328292 -1.807718474000057
H 7.4722934989681 -2.4841649027697486 0.07153062831438539