13

C 1.0354421545782295 -0.03581757499496429 0.0545110659034154
C 2.4812535387395647 0.025227677829987426 0.06397909982326641
C 3.6856300791349113 0.08510616650735917 0.06330397762862484
C 5.093382451744939 0.11729139090253655 0.06548657668605783
C 5.85388391566564 1.209913339984532 0.26781917417174045
C 7.305870312399355 1.103854387883755 0.23956673134936207
O 8.059139544500528 2.0273320453859514 0.41638103329832893
H 0.6404386009890357 0.2460277895751566 1.0387108739424413
H 0.68299971454523 -1.0418086719350959 -0.1789692493044397
H 0.6290691246978154 0.6594669129134028 -0.6813259574068831
H 5.59794733209003 -0.8333984134716936 -0.12427657473727814
H 5.415883823622758 2.1852048260263137 0.4659666997346954
H 7.695144730660955 0.08138293273337271 0.04367187239027027