15

C 0.9474321917983689 -0.1455250618468387 -0.031958047793341465
C 2.3993166094448464 -0.07183065632560934 -6.70802879932297e-06
C 3.59532277045238 0.018473780924775904 0.045764796574405756
C 5.021452193477401 0.043799534752906315 0.0661095911647037
C 5.728897979497584 1.1695210648056151 0.12995819184298224
C 5.671755690835285 -1.3225393374413903 0.02261074054729631
O 5.249077202660329 -2.0904611527680586 -1.0733930962161264
H 0.5755137852622386 -0.055829844512194894 -1.0640657275549144
H 0.5051016441856508 0.6525932499465633 0.5548241905691753
H 0.5895506301132988 -1.106117803436173 0.361220525739961
H 5.2436566728035245 2.1422252925166165 0.1938082877128823
H 6.808462127049396 1.1413479369225514 0.13140179219722614
H 5.471442169857573 -1.8431927579539398 0.9675762082340945
H 6.757988869934168 -1.199332067740698 -0.08402540079479971
H 4.2820527628514515 -2.0926176056140062 -1.0769879830368823