13

C 1.019156676647755 0.015564924608949014 0.048662896519596835
C 2.4666104263357647 0.05111439712832993 0.08985510901529999
C 3.6710717782083853 0.08180481002864799 0.1288659200031431
C 5.081924700338553 0.08602754594802083 0.11687721104660177
C 5.843444700040189 0.8221807912024227 0.9490818673318674
C 5.798224421507933 -0.7834343529406009 -0.8551565653363843
O 5.260731931284626 -1.5012803895381428 -1.6623353032586392
H 0.6029498756578929 1.0128523689938915 -0.0950169035002422
H 0.6089798018176524 -0.37701312435190554 0.9873087623019184
H 0.6760371916262313 -0.6269201036141526 -0.7597317080929848
H 5.414748371806039 1.4786239906986516 1.6858868935112377
H 6.930054732746732 0.7628661992192948 0.8806558398064191
H 6.900457190644443 -0.7121860570790095 -0.786453058142856