17

C 0.9015361561490784 -0.0621454675204559 0.06533360408162533
C 2.3540775345132183 -0.059531969634250684 0.04064443044885542
C 3.5551122806777053 -0.05095906386368601 0.009184841346018933
C 5.018626000862712 -0.04390744529846697 0.0074267085396216015
C 5.571053095052909 1.3767051478127976 0.0025138259383267474
C 5.542012182772472 -0.8408502110867387 1.202834782643347
O 6.945323009597479 -0.9507512431142776 1.2242382315344387
H 0.4988384334151632 -0.552845356547669 -0.8207745823318096
H 0.5089370611617144 0.9499451269157418 0.0989044803922502
H 0.5223525600789848 -0.5972760232833235 0.948735287924914
H 5.35603144522132 -0.558372617473954 -0.9030526058225519
H 5.216849800172851 1.930848080660261 0.8741030369229859
H 5.2585307252925535 1.9189420166559215 -0.8934423514799535
H 6.660083152215381 1.3485564398159735 0.033803668995052535
H 5.058666162869535 -1.8318434832604225 1.2236037112990432
H 5.261542022346471 -0.3257500924820165 2.1327337322999864
H 7.215835100708406 -1.5220851506738171 0.4962064682640194