17

C 1.2712415943848812 -0.28504036357063905 0.60582223133912
C 2.6713720467468507 -0.1591999224440808 0.23818273127904735
C 3.8305946847508556 -0.07813594728380202 -0.07185815965729672
C 5.2381447330142565 0.06771591359895206 -0.4537219632250826
C 5.907873154608868 1.1104626638261565 0.4328324224944775
C 5.344922130435632 0.4549629314050913 -1.925236065551837
O 5.8543697231001515 -1.2127044579085116 -0.23891508606250997
H 1.018374910946937 0.40469470400392904 1.4186416257577572
H 1.048661631501975 -1.2971585361591813 0.9498465979099402
H 0.6241271279614394 -0.062175822531143135 -0.24457610437885782
H 5.860460491571913 0.8031006357468954 1.4751572494291973
H 5.424896902876306 2.0866988053234246 0.32717374084901557
H 6.9632863969416 1.2133719338233881 0.15267106410830328
H 4.841245672124346 1.3966977014853674 -2.1156776405527196
H 4.885202358499541 -0.3238976372186312 -2.5477829142384785
H 6.392071845654888 0.560014761042168 -2.2150911384497367
H 6.778279069352704 -1.1242398020138566 -0.4893383982431359