15

C 1.0594295799862294 0.16092423356060767 0.09435616743678554
C 2.5064295985305494 0.07457698800863825 0.05930291118836984
C 3.714040165884288 -0.001407097730156799 0.032352624074111
C 5.162551493719729 -0.10828378916093964 -0.009797250214602187
C 5.856741334943724 0.612560892939873 -1.1690373394787636
C 5.197433245483783 1.8427983148038023 -1.7073154326051971
O 6.897963078930148 0.18898802468254663 -1.5836881569898886
H 0.6056539868091954 -0.8032915056260194 -0.13132716889011886
H 0.6962011095939388 0.8947448928038684 -0.6335956375937277
H 0.7145891056676319 0.4743945781913501 1.0787169566920272
H 5.481708764649829 -1.1495872360020916 -0.03224766296174678
H 5.58639764337882 0.3254624841043902 0.9061498454102115
H 4.931319345839498 2.530187415823558 -0.9057063749727655
H 4.267147001281578 1.5740553666108035 -2.20230862107111
H 5.869137385279535 2.3347564104591716 -2.4171733328335288