19

C 2.7439783409407497 1.5807027157908247 0.02677414691468838
C 3.569758061170069 0.3387167512521885 -0.31596587399365617
C 3.2747140976516356 -0.8214178415731644 0.5648902076325363
C 4.1519518568926115 -1.4550501222797565 1.330127215984441
C 3.842716619274253 -2.590677817313697 2.255812904267925
C 3.894299741061214 -2.155095190795886 3.7078034701851466
O 2.9470601342523963 -1.1622392215629074 4.008807586494886
H 2.955588055720011 2.3923309131398245 -0.6685492778401017
H 2.9734571091850754 1.9295283912741403 1.0350156891558875
H 1.6725205304510067 1.3657407954986782 -0.02068021704436827
H 4.637661070423444 0.5706646130064493 -0.26894774292370127
H 3.367974119838341 0.06173591695114342 -1.3547315487043425
H 2.241559449492851 -1.1704657536490046 0.5678242375999742
H 5.192069575066466 -1.1106798098888284 1.332879997287123
H 4.5496249539316445 -3.4145944754818176 2.105112962876133
H 2.8412054423288 -2.9830222303358185 2.0348675432488235
H 4.910615523063296 -1.8095245933914865 3.9532829927376842
H 3.682837671526976 -3.001892254889444 4.368740812724376
H 2.997809321647547 -0.5025343349799242 3.317051616579608