19

C 2.371212885206914 0.19973664552577378 1.3789635609203919
C 3.1440246832068834 -0.2054709431826003 0.12876834953067195
C 3.2326433241754238 0.9044479407342858 -0.8713710712009687
C 4.373207053399562 1.424589012035469 -1.3244928953026383
C 4.5123136491455895 2.544032943760445 -2.3125260817416544
C 3.212062278787653 3.153920727511103 -2.791621929699927
O 5.376354531790085 3.5500008775596643 -1.7752139191251888
H 2.2841341646049074 -0.6436791302516358 2.0786413605577834
H 1.3603039341283656 0.5234811141450306 1.1325088517613586
H 2.8610571266228204 1.024923305215733 1.9032202915478194
H 2.6503963223869866 -1.0684196477606531 -0.33211166769574074
H 4.15459990581553 -0.533343219398984 0.40025743068812325
H 2.2829613446566994 1.2866139543747719 -1.2332047592501694
H 5.3164416993984345 1.0417285950991002 -0.960638563861043
H 5.062974594455241 2.167592887852748 -3.181754093212108
H 2.6240490847272757 3.5521117692829827 -1.959614781274098
H 2.5946463570029965 2.412220699105519 -3.3174657949865214
H 3.421456711426878 3.9711272751728512 -3.4810175491362774
H 5.004076199917411 3.823959441598471 -0.9333915928790676