17

C 1.7572574318459644 0.4589190363212686 -1.2489607548483255
C 2.622874585660822 0.2066576732027853 -0.024131016964563528
C 2.984965911318742 -1.234723797011235 0.1434753228659686
C 4.217602791468953 -1.7176698984241678 0.17264184828519874
C 4.567952884223461 -3.1658724741927426 0.3182186103424197
C 5.120062983846946 -3.6992750541577006 -0.9839945703792463
O 6.229054548319665 -4.131931410511632 -1.1335627273818638
H 1.4839503304048904 1.5193963289818053 -1.319771906203964
H 0.8299521189750473 -0.12288655753665081 -1.1957379419062557
H 2.2774321842373557 0.17477048114463048 -2.1604365135409864
H 2.0927224064370074 0.5497522697816741 0.874076920568384
H 3.547262264144917 0.8057779283998843 -0.08139761645982618
H 2.141435949432413 -1.9177868972815277 0.2516205880823084
H 5.058839236530293 -1.0337519786056777 0.06573700890310552
H 3.6550487379272614 -3.740270117631101 0.5543123210810887
H 5.3080715370397265 -3.331046288009972 1.0963207950164597
H 4.409295284404795 -3.6540069316787243 -1.8417788184652493