19

C 2.0913720367568907 -1.4530121360315444 0.7090063545593017
C 2.794999910193763 -0.27989887719553314 0.021545865829527455
C 3.0140565245052144 -0.48623593227261863 -1.4554725103398818
C 1.7729834068819665 -0.6039182016116185 -2.2825585547463048
C 4.260800741430268 -0.5725984279383551 -1.9433082208198833
C 4.687658224691693 -0.7546889965707932 -3.3550277483377
O 5.562911640360835 0.2715637562485525 -3.781785536477324
H 1.9756830456837162 -1.2574774407804805 1.7768561026554182
H 2.6641660995672254 -2.3727679560898545 0.5879124844778829
H 1.0909567423009228 -1.625533443545046 0.2947342708555702
H 3.752727997584375 -0.09833159056349619 0.5070666952485023
H 2.1946273390973716 0.6223213970652095 0.15835207811119636
H 1.067256994445225 0.18781326372670484 -2.0194981751739323
H 1.265385421828615 -1.5535328069806649 -2.089066144919532
H 1.9600973737281517 -0.5410444727418265 -3.3495042525914926
H 5.091584348047821 -0.46381703805418206 -1.2424277711116098
H 3.8279642316799536 -0.8439433312834732 -4.025678095811066
H 5.257791248049244 -1.6858069921113394 -3.4515545697244923
H 5.1432744519562315 1.1137715419568857 -3.584723923587318