17

C 2.362941068980909 1.3275364000021037 -0.10245165875763686
C 2.797185172349094 -0.04610873693989359 0.390183637253784
C 3.0964556519821023 -0.09075608006742186 1.8582705348080861
C 1.9363167132979957 0.1579653845812928 2.768377410937353
C 4.349738862908976 -0.339578157096286 2.2832189865120136
C 4.8074638263430325 -0.4074265601134271 3.6611793212945183
O 5.950939392123707 -0.6346930284143064 3.9753385409072517
H 2.1876953723655257 1.3075532136172638 -1.1813835006605837
H 3.1320794542405115 2.074357767853611 0.10282218546119107
H 1.4282329135103276 1.6575842085164658 0.36577090822510533
H 3.6761302073809365 -0.3806971712742846 -0.16216341848163687
H 1.9972033440256558 -0.7681691206204683 0.17658242368408494
H 1.5664412447377862 1.1811802644742178 2.6319796748416713
H 2.1564584309340407 0.02418364009739113 3.8223186529905853
H 1.1044503830300887 -0.5074774707805865 2.505103694681388
H 5.13220520864526 -0.5199185260506978 1.5414455360772916
H 4.043014220034144 -0.24557298060135155 4.452230196645009