21

C 2.916419326348746 -0.2662160567237531 -1.2406856988682577
C 2.51176690213276 0.029836042048516788 0.19674700504644993
C 3.0410643059684324 -0.9271730031420384 1.2740883284313145
C 2.5819550412514802 -0.4192521015145491 2.642870719535595
C 2.5077932161424883 -2.342814677417073 1.0576815438765288
C 4.573933683343064 -0.9976250702452759 1.2533417166048946
O 5.218161820277735 0.23942156842665005 1.4305320862569577
H 2.4754383024738655 0.465753361158389 -1.9164872009525245
H 2.57988430529333 -1.2546847727175023 -1.5655978509338284
H 3.9997499950550015 -0.2330312528281458 -1.3908654653675885
H 1.4203844904699987 0.039098388189321445 0.2654557575358619
H 2.824942085100163 1.0465700030837106 0.4600627446869481
H 1.4995990604294194 -0.32249834217615275 2.671195952381745
H 3.0197812474967347 0.5593382843251637 2.8498233943091487
H 2.882069882969214 -1.10391956624689 3.4307875959342664
H 1.4143457329458409 -2.3545073160111776 1.0798051476836414
H 2.8546717421090277 -3.0155798873745137 1.8452075025752133
H 2.8273407933556816 -2.7591318215038934 0.09454918092664477
H 4.904262238242195 -1.4787601249143345 0.32726564871430375
H 4.91283827878991 -1.6324090691543016 2.0760895477913266
H 5.065369416803119 0.7777172361504098 0.645550586005971