19

C 2.9311050633464113 -0.17407679408860885 -1.4425814765013705
C 2.594612544964243 0.06577892937378639 0.016044379892748345
C 3.062348196733662 1.421984002147854 0.5923890824906095
C 2.530807008149463 2.6095498340170575 -0.20043187361541642
C 2.619774298518806 1.5028898956774768 2.058999275691956
C 4.570402414635397 1.4101945799361195 0.5996417680255288
O 5.287949139803912 2.2141784270251033 0.06854076372768005
H 2.633092319634271 -1.1757068311736818 -1.749309015917939
H 4.012163009080439 -0.08062531359012932 -1.6290474065701182
H 2.4238814220710405 0.5311875019510482 -2.1051137674988034
H 3.0228417730422885 -0.7289385327117617 0.6253769999695598
H 1.5092055235677428 0.010296406089240605 0.16065923313805922
H 1.440319350282815 2.58808479112894 -0.23663082627414936
H 2.9128974847986524 2.6132149197376697 -1.220542272967377
H 2.8388099823572532 3.5421384722140976 0.26146264451469853
H 1.5352490858678016 1.4450762073293215 2.117581184832115
H 2.937388093386083 2.4425908125728153 2.5108401621330825
H 3.035966806049106 0.6788002230608686 2.6454654579982555
H 5.012118527466236 0.5467733804869518 1.1615587999808759