19

C 2.8602189419584025 -1.2112304361142419 -0.8424539975988166
C 3.0771570496389895 -0.1194852946601128 0.19278321554961095
C 3.375458252752159 1.2620989764023098 -0.41325881163863415
C 3.4378662711884216 2.3461404201100486 0.6718734800026543
C 3.5746073675694165 3.7568847133915653 0.12011648187921589
C 4.69850293938213 1.2095838197915998 -1.1322994636966284
O 4.8779402238939635 1.4070937950997575 -2.2932085610643678
H 2.6360957223559938 -2.165993503389053 -0.35856229718433735
H 3.738014066209667 -1.3508895898344173 -1.4741623751952715
H 2.030365012974208 -0.9611022546925059 -1.501460760078748
H 3.9060930496362545 -0.39336072089029805 0.868007646848565
H 2.1981125606527656 -0.017967967531482745 0.8261081010285974
H 2.613099718920357 1.512081568959632 -1.1467661270558143
H 4.2630117237596705 2.127076902161385 1.352625128051583
H 2.5212505350978 2.2703411254171475 1.2691105513349275
H 4.491286750474192 3.875284438937396 -0.46248225911889834
H 3.595752130807227 4.491159751567791 0.9230551630999735
H 2.7438173701532924 3.999755083027309 -0.5416895618890359
H 5.560318219308088 0.9542334467153908 -0.46090433555146926