17

C 1.0773398667327378 0.2635305658417942 0.12003899836765129
C 2.5469251647299442 -0.11604164446669527 -0.08326672998153907
C 3.006516445526462 -1.138452226274452 0.8406833552265173
C 3.372629814243777 -1.9734604882160671 1.62156326720027
C 3.8108132365529293 -3.020405717967162 2.531548544023509
C 3.7810559175022695 -4.40002262848832 1.8878470976785318
O 4.164982591810463 -5.411165707114539 2.7882793901662453
H 0.7834386724522926 1.0329598394948272 -0.5966625166002324
H 0.9215836809627576 0.6496297091101759 1.1271648258008002
H 0.43093881342394286 -0.5982717783750059 -0.013431619528945678
H 3.1815868601603654 0.777287167588888 0.01659057433534927
H 2.6936771866870948 -0.46960939134986573 -1.1102570621595471
H 3.1817340779626657 -3.0295991053988143 3.433138308478998
H 4.830118958504721 -2.8025862199003497 2.8761216880852123
H 4.4020910437234875 -4.405280877715922 0.9957315896326051
H 2.756629765879304 -4.639140274861915 1.5857541619670998
H 5.095764415826805 -5.303333234196509 3.000842455415526