17

C 1.0222798641603517 -0.08447514901661884 -0.020644340544198392
C 2.5410619146077074 -0.04205720405133534 0.07168897641522783
C 3.0391680007209367 0.08602966797684947 1.4401505046462701
C 3.405331694437461 0.19440887769829862 2.579909611818514
C 3.902071183945351 0.3375768534874974 3.9307243662416247
C 5.36794316983192 0.7834553625063675 3.9763366279710417
O 5.862315095238484 0.8673712950345187 5.284250300340177
H 0.7014644053037273 -0.18037311595454547 -1.0526964036632265
H 0.586289584510645 0.832994527836642 0.3883214324646245
H 0.6259738549374899 -0.9215751270596537 0.5456513010540285
H 2.933972450081993 0.7913463037050392 -0.5311363330211836
H 2.9667199805808293 -0.9495482594214594 -0.3677765811227478
H 3.2888767487816137 1.056501236188134 4.474497260760764
H 3.8214034586446277 -0.6147028089857602 4.471024576438316
H 5.469831963732468 1.7331715188985626 3.4400857096295394
H 5.98351265822897 0.04746300244642294 3.4600570899900833
H 5.41140838159525 1.5909102516669134 5.738445880943648