15

C 0.9517743703247606 -0.036278597048235765 -0.01674788629489048
C 2.4672535147130943 0.09373610057164869 0.15058221622828413
C 2.950603170302288 1.4461743015851019 -0.04763969402848553
C 3.3378070642186133 2.5724882615460465 -0.2302725004256859
C 3.8089684363132306 3.937420576428969 -0.3957812695310268
C 3.94769097369694 4.656955246015549 0.9333706514320966
O 4.831217733972432 5.431474407663083 1.1695883520703185
H 0.6360750264385768 -1.0684310580443974 0.1400904321380064
H 0.6500861356514139 0.26414924533711037 -1.0194655378234254
H 0.4303451300860418 0.590517221677354 0.6997131803297854
H 2.9767753042437306 -0.5732408091817948 -0.5632220059956016
H 2.7626009036671864 -0.24955178932540112 1.1493420538237222
H 3.089466104459819 4.509518938741426 -0.9872782197119017
H 4.775610791950241 3.980936769429106 -0.9127108658405645
H 3.158157284646613 4.4395244563328475 1.670965176162544