21

C 1.2763723908821307 -0.5940104832512436 1.7651457863959066
C 2.5841926225163387 -0.39762797422189466 1.011690399070331
C 3.7825900141500437 -0.9468268249681985 1.7542706075122354
C 5.108850762724339 -0.8447986158927651 1.0035736394327024
C 5.539804342290097 0.5868502558076438 0.7430559035200428
C 6.1894300134756035 -1.5968214955886126 1.7751665508558745
O 7.43602294522982 -1.645017968460235 1.1104325705345368
H 0.4255868116509263 -0.1962909101505147 1.217496551359095
H 1.3136429125716345 -0.09800878373352476 2.7413247019599747
H 1.089410140235876 -1.6617764883521917 1.9529725922051209
H 2.7194144682062857 0.6708325058253857 0.8082307694713518
H 2.515365591694622 -0.8895115067104339 0.02637713506124571
H 3.5958947580852674 -1.993364332941978 2.0031828162834704
H 3.878836077272967 -0.4204739079790728 2.720677791462795
H 4.987870612232567 -1.3492162858632741 0.03430322277267777
H 5.582187341649848 1.1509845430870087 1.6773716494083242
H 4.839101461931923 1.1051870309549339 0.07439160585393888
H 6.525749739771741 0.6203386479362574 0.2951877863789459
H 5.837706820318037 -2.6177317454113402 2.00180071195758
H 6.387841972308883 -1.1011212174913434 2.7292108286575902
H 7.321638160220496 -2.125293711935364 0.2836065486053162