21

C 3.0872118189722535 -3.2468071944217725 -2.4943821566970192
C 4.292592980341536 -2.739931026294197 -1.7233440439813814
C 4.4134126847734425 -1.2240304567590525 -1.7658285815589314
C 5.686663112400489 -0.6371668447099985 -1.1556342602781136
C 5.655733005485628 0.8810278278656378 -1.2926802590345188
C 5.857206029259224 -1.0278862536122602 0.31066831374732157
O 6.760933560503907 -1.1680557926271076 -1.9222920976952362
H 3.0071472476747534 -4.337582679844608 -2.450552096484909
H 3.1463059916307823 -2.960907710504211 -3.5510309153455166
H 2.1526902754413775 -2.82917008544386 -2.0942165745700305
H 5.21095349768673 -3.1756311235708172 -2.135086162520716
H 4.2289725027420495 -3.084843950518638 -0.6883722898414625
H 3.5486107686284196 -0.778290930377588 -1.2668396167127536
H 4.380388355812719 -0.9027981610591669 -2.8127769467704056
H 4.825782555496389 1.3156671775429725 -0.7367592319295816
H 5.5600698489797695 1.164810726159738 -2.339571872287862
H 6.587428649469498 1.3195390346538147 -0.905734273865305
H 5.00098500511909 -0.7059215335851482 0.9036168235632935
H 6.7481066323486685 -0.5606084088985881 0.7203194725247718
H 5.956263018262691 -2.1068548292354037 0.4133674529798159
H 7.5833672342024485 -0.8155055475782385 -1.5682402206789197