19

C 0.9348728324441049 0.24754791088097058 0.03202870261745975
C 2.451020513091473 0.2646996573632115 0.1140105034881785
C 3.0877186125210914 -0.9536114479626029 -0.5437228504019272
C 4.6132332890032615 -0.9726552815911461 -0.4732346141798316
C 5.179617951883759 -2.2774984867248786 -1.0276607238692923
C 5.17959397344424 0.16548934910245236 -1.269179397487338
O 5.930125954964421 1.0079328087088748 -0.8680164591471382
H 0.5021757858374193 1.1236375054192898 0.5180666348613607
H 0.5225664502910629 -0.6379949466910985 0.523303516595177
H 0.597557895666769 0.23612877312464134 -1.0052687342954552
H 2.768816912192536 0.3107867597447518 1.1645481787501328
H 2.838850075054253 1.17252028386938 -0.35534316805169464
H 2.7763550726494963 -1.0044126861213534 -1.5886828975217824
H 2.7038225333579784 -1.8621569541446954 -0.07387757590633617
H 4.94351128145264 -0.8318314373435309 0.5662515415884185
H 4.922708247596019 -2.40206457322004 -2.086238157338367
H 4.766545267428399 -3.1266255633238123 -0.4770992753868008
H 6.270206377745775 -2.310724224798499 -0.9409018579274211
H 4.843802525030721 0.17923340979542837 -2.340062037235302