15

C 0.9779544251531233 -0.08122735529061824 -0.01233949431139219
C 2.4933261887149762 -0.0926947333938887 -0.01990449478468199
C 3.0611531729461743 0.5533534371343223 -1.2768058287590323
C 4.512352467883866 0.5507172876904963 -1.3102283172904257
C 5.720317162409901 0.5210847610178055 -1.3167216073476011
C 7.152508533031016 0.5414729891111428 -1.3065406873590024
O 7.851618409885311 -0.2990636040989148 -1.808898826733527
H 0.5912935538554726 -0.5557110499605264 0.8944198350639618
H 0.5762848689158269 -0.6367577349081831 -0.8680972555080723
H 0.5895672094882299 0.9329655477978552 -0.055315598995999415
H 2.8749062034332744 -1.122699168719769 0.0548117779686005
H 2.887924451337055 0.4373036634728097 0.8636493404759817
H 2.7022183999391216 1.5865647355598471 -1.3584854514002072
H 2.685640623355816 0.027639388336340505 -2.1702324251766574
H 7.594052427789021 1.4014116884889993 -0.7699767361418238