19

C 2.197371779473016 1.2685412603402095 0.5127346545828301
C 2.222089474692655 -0.03946984987998986 -0.28112443300119444
C 2.883269024412093 0.07616634170090637 -1.6310836689101207
C 2.2061300005075943 -0.008334147379567274 -2.763923561134358
C 4.368275113595669 0.26530303813212447 -1.5923765740421159
O 4.914210764594399 0.3413449168289383 -2.8798599353838514
C 6.30160549630242 0.5407824707679812 -2.862365753551638
H 1.6640309692301212 1.136723623463937 1.4513214363989064
H 1.694352778944974 2.0531751098553035 -0.05155876713943559
H 3.207362746227818 1.6132161110638736 0.7473167221228518
H 1.1969394412176766 -0.3900840825973958 -0.4293456409175252
H 2.7278343240249314 -0.8122691044097275 0.3093275048736886
H 1.1340195780765825 -0.1636898252622313 -2.7617812219351174
H 2.7039956982489115 0.08319905280611226 -3.723162257535292
H 4.820807205848044 -0.5689706495623449 -1.0368362558953625
H 4.610766611076036 1.1817038469814551 -1.0353010228918587
H 6.637857133693639 0.5922179025096664 -3.900708094979822
H 6.81999065662482 -0.2841034586432598 -2.350837477629399
H 6.564627142593168 1.4785055358148154 -2.3569846303767172