19

C 1.620423186076671 0.19725178553366227 1.1505867601020119
C 2.582510443603424 0.17595277682909075 -0.04092991909331665
C 2.611705258444155 -1.1297119229043027 -0.7846441911170589
C 1.3573860667810262 -1.5739549961100185 -1.4755872065707154
C 3.7281098752378155 -1.8526046830029257 -0.7987390748127815
O 3.815288950373093 -3.069796215879343 -1.4003422484443726
C 5.131238902895661 -3.4924168065356325 -1.677251587522959
H 1.6456631570347486 1.1581022357974413 1.6503588963040343
H 1.8915577802197316 -0.5748337525084727 1.8729069543651633
H 0.5901883010397567 0.0016531564732357035 0.8370918064941866
H 3.5890176781881524 0.42108119318562515 0.3072573300428911
H 2.289247411845493 0.979804169610478 -0.7383894313859497
H 0.578115153874658 -1.8617240343084638 -0.7515761134192595
H 1.551698283356126 -2.434302128792756 -2.1143317438870044
H 0.9460739543845652 -0.7686805759418466 -2.078080654930946
H 4.632927526200312 -1.513065762587451 -0.30105659869942025
H 5.064405742403822 -4.4971619423496 -2.073943389097509
H 5.7319158618492505 -3.5128164797691173 -0.7655645671149506
H 5.612216393445308 -2.845408020256846 -2.4125785590040016