21

C 1.846854562824602 -0.44867671007356363 0.47455251607417337
C 2.7419310213309807 0.24958469629586194 -0.5409975302910317
C 3.0948088799483755 -0.5516031769805849 -1.793226178682882
C 2.044837798970453 -0.5759435641985625 -2.9008834709149163
C 0.7297064516378775 -1.2618628274217094 -2.591449169756779
O 3.4321289269585646 -1.9035918561087848 -1.5083560481140486
C 4.6414823461488925 -2.053513874792411 -0.82750536166039
H 1.7465218502526063 0.1508534989598441 1.3826570814495631
H 2.266310348735599 -1.4158146606975215 0.7638077693105144
H 0.8381642088347065 -0.6340880094662081 0.09835782173131548
H 3.674104190918372 0.5278546156533758 -0.04051590555041298
H 2.2908744454743495 1.1859690176927193 -0.862967654135376
H 3.9840826515829755 -0.07278182299054897 -2.236267917872844
H 1.8581809864530427 0.45740952344790914 -3.2071417588699287
H 2.5047740140546173 -1.075140318612666 -3.7548566006733237
H 0.12228614536560953 -0.6901869149249541 -1.8872053642021618
H 0.8935907929589175 -2.2617182528725697 -2.161913312057774
H 0.1359960824005842 -1.3887279753048083 -3.499533958199585
H 4.615238030986077 -1.650114355894146 0.19313216972546568
H 5.4733474739323285 -1.5729709968734702 -1.3657200030658323
H 4.844806046289425 -3.12303075953973 -0.7635584480262224