17

C 0.9619724007538741 -0.039220330341114655 -0.08522420378744922
C 2.4752367319389608 -0.13480600233993537 0.10310151610679119
C 2.9484456249292457 0.49919710038487636 1.315041837304246
C 3.324752472006903 1.0321021994774653 2.333879653665596
C 3.7765894223349354 1.6804373776594292 3.5460994275231377
O 3.9900124408575506 0.7449372236245085 4.5710081605780895
C 4.432766150047528 1.3596480375094833 5.749328310136205
H 0.65376655494855 -0.5334145735780705 -1.0065414520537947
H 0.6485159669796368 1.0073209637626181 -0.13116019927359462
H 0.4361801342648251 -0.5103610520280505 0.7476779966977836
H 2.987462901665433 0.313761144967562 -0.7574222028665577
H 2.773813391012562 -1.1865810769054326 0.11358452053980223
H 3.0361888886270743 2.4376434233385216 3.863502587655569
H 4.711634781886496 2.228053675782576 3.339530079962979
H 4.568495654369415 0.5722693833900154 6.490122044145442
H 3.6967893720991043 2.084492874834607 6.126664789519754
H 5.3892591061689465 1.8793069933251403 5.600625304227601