15

C 1.1212761777702298 -0.0009630025204167617 -0.09891454754779584
C 2.6143120931040005 -0.15159923997683256 -0.03343599337562784
C 3.0778210895797526 -1.566277311743264 0.06448975982992791
C 3.3758597671694655 0.9479849006923287 -0.07875324617040369
C 4.836344908362999 1.1123704391611264 -0.03356404752925047
O 5.568026705310823 -0.02019600719283774 0.05271328188289418
O 5.362433538029321 2.1854914314215494 -0.07820936644115672
H 0.721681030469603 -0.5457101745775975 -0.9544122755927903
H 0.8177396301455975 1.0399789976983258 -0.16310805282148996
H 0.6593481273489943 -0.4443075390064889 0.7919920831871335
H 2.638345131257568 -2.034106715041793 0.948191788235059
H 4.149865742922085 -1.6755584577825244 0.10251092156453899
H 2.692888683158397 -2.1375960918974855 -0.7983335432429537
H 2.887793241694392 1.911290509104133 -0.14633788786036508
H 6.489442288374845 0.26973681060404 0.06385573518150761