13

C 0.9532830328452823 -0.10486493455963206 -0.05400729446300878
C 2.3967733507315425 0.0693683370591938 -0.08949576811246664
C 3.5908740190959003 0.2121460531954362 -0.1314408299630876
C 5.020409070197127 0.38574011620863635 -0.17206086938643492
C 5.635748881612942 0.19764309587401324 -1.5375639921438164
O 6.976093031459659 0.3809352369153217 -1.4684037084027484
O 5.068062622394886 -0.06771217497307547 -2.560477669333839
H 0.6742307889784851 -0.9199138253235823 0.6144717951788015
H 0.5742503131357634 -0.3383479793850706 -1.0512094445056204
H 0.4627057231288872 0.8087442008557558 0.28945021506102103
H 5.524936019370372 -0.32170361781947976 0.5006260018149222
H 5.3180239798453295 1.3747014059018476 0.1830933024379931
H 7.311079117613904 0.25270195624472147 -2.370374606529173