21

C 3.919139100426958 0.8903920441387961 -3.1376172208475115
C 4.392912665490862 0.13733302812099654 -1.900261071814153
C 3.3838106407125124 0.18301285791522995 -0.7549678416398854
C 3.859965022818228 -0.5575051565558148 0.46752228657800354
O 2.8772042448649993 -0.4688434115960628 1.470799585306258
C 3.2445503080629363 -1.1345130666364769 2.645635218329219
C 2.14206415550682 -0.9862723139720561 3.660830169101164
H 4.654960193968746 0.8376687376918643 -3.940531495693935
H 3.7348322881251836 1.9458770607559959 -2.907447921960246
H 2.980701835519475 0.4711447023847452 -3.512369768351811
H 5.341433422955528 0.5527701409452423 -1.5619147342148558
H 4.587468969559866 -0.9081197051328899 -2.164316066178137
H 2.428559356672093 -0.23939454887131026 -1.088445036611611
H 3.189092265736649 1.2278020856868292 -0.4807696795339284
H 4.810515493059483 -0.13297600458696293 0.8288769936368544
H 4.044263878018285 -1.615040863574344 0.22003287675457078
H 4.1850159620453855 -0.7301648127463966 3.0464254789955136
H 3.421239193663028 -2.2055551635158546 2.4365881544424073
H 1.9681867907580053 0.06723838438702004 3.8887668258205084
H 2.4022238808219902 -1.497292074046647 4.59587724079215
H 1.2085513437307838 -1.4061931704138142 3.2857319838274677