13

C 1.4437719957089854 -0.9925111541816456 0.14503503727083833
C 2.3841304193599346 -0.10987506913990501 -0.15221067490825033
C 3.308931990291583 0.49462530944037775 0.8523264777261074
C 4.764087077374907 0.4577636156560295 0.4412099277327194
O 5.148065525364716 0.09728059018462792 -0.635818559983542
C 5.696291074429595 0.9320229078218651 1.4580984757339368
C 6.448788242022412 1.3206813626871237 2.304571235773912
H 0.7900051930134078 -1.3923106653718973 -0.6167081425024445
H 1.294467328945104 -1.3478863754466832 1.1582946121569946
H 2.5267569679495687 0.21341032639132795 -1.1779824087554827
H 3.2122236993896145 0.011557513266975794 1.8356243262521277
H 3.0691278424376516 1.5573486147383784 1.0212713167222893
H 7.126580714984559 1.6602147258831141 3.0517283421082224