15

C 0.7014945464650416 0.16645178288382187 0.2868889709848977
C 2.174986441702298 -0.021505098212646245 0.31820610868036897
C 3.0712877118960495 0.914236097883936 0.6190159067481562
C 4.522244509154754 0.6134488279109824 0.6218324477070084
O 4.959994142475899 -0.48689328838426965 0.34193154328573966
C 5.418254290311252 1.7508394640638616 0.9848014298931798
C 6.737635110130543 1.5986728489974662 1.0166435499587554
H 0.3111540313551241 -0.062392001615383205 -0.7026143358854079
H 0.4142774450046931 1.1893221165279355 0.5545309920715553
H 0.21274899979491282 -0.5238027404188822 0.9850196833012227
H 2.559486217884267 -1.0086863313704892 0.06915518502636692
H 2.7613620592514456 1.9206808714165484 0.8819681002137008
H 4.9565744962346 2.702970335957613 1.2210014451478248
H 7.181867472871544 0.6342347578854661 0.7795864207734016
H 7.398917967938545 2.4166736494962024 1.2814475676889296