17

C 1.8019015485826653 -0.8734840947522751 0.5658698047843291
C 3.0633904709916493 -0.08000949084867093 0.6985421837165823
C 3.7180245289988845 0.058458191351317385 1.8482653428215696
C 3.5185970847342025 0.6079244999707548 -0.580659534199619
O 2.6257844029423856 1.6567177627636982 -0.8924846032172219
C 4.958447356737285 1.040023559391944 -0.5582903563343217
C 5.3831364557772075 2.264422744804142 -0.8354344644025131
H 1.4552163367407827 -1.2490103382688804 1.5297104082705988
H 1.9573059196150524 -1.7375658584487033 -0.10551981459592355
H 1.0171218616368516 -0.26893767457870177 0.1094521921289037
H 3.344836136663606 -0.4101594372592904 2.7565961911475916
H 4.6265329642783675 0.6367699711743058 1.9249095917663686
H 3.4026155316941846 -0.10099978959171457 -1.4016744275011823
H 2.6037521206096055 2.2528890034218616 -0.13854232990038096
H 5.674312515495374 0.2620908519034903 -0.3154288821144099
H 4.686923062047747 3.055850915126774 -1.1033210592366829
H 6.435804016161616 2.5047568987231985 -0.816101488243777