15

C 1.0120383154958315 0.22644235065105697 0.2545482758920499
C 2.451243050553954 -0.07570523253400477 0.004494040592027381
C 2.9817226901375835 -1.2909964312461593 0.12820682655239962
C 3.2713980610781874 1.139410849721927 -0.4063181803642714
O 3.2452258680764894 2.1258246683286792 0.6191657197966173
C 4.64884504809519 0.8184382580878432 -0.7968381043917004
C 5.784360402423585 0.5950917933479396 -1.1060929562156847
H 0.47893243700247584 -0.6568145685288795 0.6110628384785975
H 0.526868322748057 0.5758626626270874 -0.6637452311196458
H 0.9028268034003608 1.018268234941675 0.9942910460656456
H 2.371881540605908 -2.1339778804565017 0.4255223295378501
H 4.033374627868407 -1.477797160629917 -0.08411530382025778
H 2.776125398740312 1.6137408098109385 -1.2580460374871987
H 3.740925847206877 1.776594389212635 1.3682429231081494
H 6.793299259431738 0.40813733312760037 -1.3903517898217597