17

C 0.7339899146689578 -0.08820501984611506 -0.16622527204324236
C 2.2230132146167696 -0.14954958207851937 -0.03555945630377287
C 2.922946697803411 -1.3100479257863948 -0.6591380844335594
C 2.867943463577706 0.8219089665561313 0.6126677044519225
O 4.225563988607646 0.8147514867835132 0.7531949608049947
C 4.795223204854416 1.8426290395225073 1.4271458145805844
C 6.100953456089028 1.9296283592918426 1.6223700107938415
H 0.27026895462962913 -0.9700084654460629 0.2793475014277969
H 0.43437664152918376 -0.08033467547859303 -1.216438575787707
H 0.3158649387682049 0.7966767535332208 0.3114498644354476
H 2.5520159657527324 -2.248908481477195 -0.23386494000009808
H 3.997054553318379 -1.266092036501818 -0.514152886560294
H 2.710115081090125 -1.3604218336964584 -1.727967859139667
H 2.3510099195450858 1.6627691687929345 1.0571597818878902
H 4.09784992428113 2.5927857529257885 1.7990556171554546
H 6.776856087528964 1.1726526360675433 1.2532940324197042
H 6.500234436942844 2.7656551797123083 2.1699884885641323