15

C 1.069740244564346 -0.0031513479715213634 -0.022473447424398788
C 2.606150276087822 -0.04705077518127214 -0.022646181741585076
C 3.1725638950452386 1.3743981778242798 -0.14192764075955885
C 3.024836291499687 -0.5838273793440742 1.3436534818541606
O 3.67852407123853 -1.56686276183929 1.5568167955306953
C 3.0933586853441666 -0.889328551695647 -1.099772465787104
C 3.4829128891768604 -1.5746158662441874 -2.005182462964742
H 0.6990756167603236 0.5965030380122504 0.8232268953241921
H 0.639420383654411 -1.009463059197654 0.04332186283248531
H 0.7113896109414642 0.45948183290596306 -0.944338217176745
H 2.833785706171218 1.9815183537920273 0.7013444751889514
H 2.8185993081453495 1.8379214766289245 -1.0683389344520873
H 4.256838787978132 1.3533991107871668 -0.16196825919710053
H 2.6603728053269204 0.05708525710087779 2.1801104277465595
H 3.8372904788949636 -2.185952844171918 -2.79940274206948