19

C 0.8450223075656998 -0.17967479680388915 -0.27972169205319597
C 2.356168104923144 -0.12358826570665217 -0.3551467074259235
C 2.9496228393445603 -1.5254984607400894 -0.27917928048300233
C 2.795668973643064 0.5958353217909377 -1.630085839410397
O 2.727446652995529 0.6421016177306146 0.8027842168413697
C 4.031630568058857 0.8869017027036593 1.0359513157951568
C 4.4583452822657454 1.575472363069656 2.0737833474630287
H 0.43307340279509227 -0.7382381244240743 -1.122194963888707
H 0.4187234094692917 0.8289323061872043 -0.2960077299603949
H 0.5304783949633327 -0.6614919270959558 0.6483229997791619
H 2.5811029124403047 -2.1315279594795498 -1.1048876378732395
H 2.6499396102918147 -2.001702627165551 0.6598710873950587
H 4.032254889380214 -1.5088903351489926 -0.3314534392046456
H 2.426183211604011 0.0670852210237053 -2.5069807245274545
H 3.881783764492168 0.6638553642134714 -1.7067062398455017
H 2.3907071132055138 1.6104316579568456 -1.6391207752633266
H 4.732057968377387 0.47832212659952644 0.3062060786047736
H 3.779068252976482 1.9914857334938063 2.8046976489417896
H 5.52019792665965 1.7363513460288844 2.2099991223489734