19

C 0.9171905153845297 0.21159001217198845 -0.6715246630966407
C 2.356273527078851 0.2074978657715372 -0.16470186123223698
C 2.844826383249387 1.612341514194048 0.1260077366745183
C 2.530455992161404 -0.6962755732415395 1.0734461437009672
O 1.7530847544390502 -0.25917350518678106 2.1610573626162157
C 2.3077678407500257 -2.146702041761893 0.7367862172690332
C 1.5795652344360824 -2.988618829049967 1.4546614391487225
H 0.8377772078813183 0.7844011756081489 -1.5923437146743264
H 0.247358844278149 0.6847108149380267 0.05324669222343596
H 0.5509892011904379 -0.7979657226822141 -0.8699200512149274
H 2.990477330043914 -0.22209795261741225 -0.9475228615019791
H 2.2739667447794694 2.057095275981584 0.9466018479381431
H 2.7312457320567995 2.259551726926904 -0.749422230509151
H 3.8991646810268716 1.6207010162067603 0.41605301472430645
H 3.567418682605655 -0.5842868549722259 1.4070715633689976
H 0.8324094114830987 -0.43743178592255344 1.9622557719458127
H 2.8088174808651445 -2.494751456538338 -0.1667880987840753
H 1.087818380645859 -2.6827407799085115 2.3726037845008423
H 1.4682439695261453 -4.020528731726639 1.1464171437626727