17

C 1.1602804522909917 0.32116542555655975 0.03431558031920039
C 2.5376074370927313 -0.18219409174178344 -0.4087267737520069
C 2.6562626353644587 -1.6835682981686566 -0.127523424854343
C 4.0299217003252705 -2.223582825092586 -0.3665310299576205
O 4.677385951974493 -2.836108981413676 0.4380583452026379
C 2.7544558934110768 0.13508819173066797 -1.8532891465852623
C 3.6950891511597077 0.9348190229538716 -2.3349907705034942
H 0.989921834948733 0.11067398639131185 1.0953920193778341
H 0.36332637795666856 -0.1698547617421244 -0.5318062951571146
H 1.0693064490172204 1.3976148172653637 -0.1257752528856201
H 3.296070156343503 0.3436476069894909 0.1715456343038957
H 1.9662480729344691 -2.22605473901695 -0.7828024439458862
H 2.3779120277864445 -1.9130278584261025 0.9059773300325569
H 4.449132054841651 -2.021058832148297 -1.377172345764269
H 2.0537248397652212 -0.33844750191031636 -2.553801741851987
H 4.413495948861429 1.4217426700537337 -1.6833333346627326
H 3.7833948158679767 1.134721244913074 -3.4018873202758884