11

C 0.9651892996156942 0.052679303831039054 0.03942792477860016
C 2.4079441188518333 -0.007313845388605094 0.07675505967242795
C 3.610675593047163 -0.04887079215261463 0.11796535527052798
C 5.052050512002355 -0.11095410083501524 0.1730402895510316
O 5.675740422687159 -0.1258212060267972 1.2090900305264125
C 5.705204056555997 -0.14379622117918736 -1.1199558752893262
C 6.248833562876726 -0.17348850576541372 -2.1958937823836635
H 0.6043661139235366 0.1350773142478078 -0.9918759806855479
H 0.6029401330553705 0.9102286112348236 0.6001496857260125
H 0.5419262105253229 -0.8499833516934431 0.4829331264466029
H 6.736299002270281 -0.20791295328670245 -3.1348002842538527