15

C 0.924049045191162 -0.030045093343294024 -0.09086795431460329
C 2.3809511509237336 -0.018893910348148992 -0.08664040872739925
C 3.5844889427932785 -0.010259353086274046 -0.06657751515768828
C 5.041572578917485 0.0005398937316530975 -0.09176132449892554
O 5.565022734260489 -1.2466894433430507 -0.4997203616607514
C 5.5554869231199735 1.126497502143013 -0.9426571722559717
C 6.333540436692806 2.1013426178056207 -0.4990765579045088
H 0.5321331728351554 0.6748505702621687 -0.8358690656357048
H 0.5313918915995147 0.25005412535251603 0.8823834273205433
H 0.5536096036728774 -1.027213090601572 -0.3352900279301143
H 5.41278839939305 0.1526098132867999 0.9286464997452455
H 5.042261987774692 -1.5556053395695033 -1.2420793146922957
H 5.253163374154965 1.0963647188517445 -1.9880889341038765
H 6.6358932650992255 2.1479988460688655 0.5401876917019541
H 6.689816670477555 2.8909447135475776 -1.148866305657487