17

C 1.5281240914562348 0.9589603765302648 0.3591922282230578
C 2.589662469308444 -0.004573033357051692 -0.15544168917801568
C 3.039221773823611 -0.9922228905292522 0.8740957777536569
C 4.2823403958847965 -1.0819429486619874 1.3049941451017748
O 4.661087412839856 -1.9839082501264231 2.2468084143361
C 5.953469265412116 -2.0047348707898345 2.625397986875309
C 6.408597206928403 -2.8486720874096743 3.5437380621852523
H 1.1956081183558696 1.6411395496596906 -0.42045636816894166
H 1.9102127655177636 1.551048089099072 1.1986629427597681
H 0.6509104361975169 0.414722566833731 0.7272863903075343
H 3.449974600885775 0.5629564477066821 -0.5207641418922475
H 2.1890065460802473 -0.5426512634968487 -1.0249527973680388
H 2.2896963775152175 -1.6591771043157495 1.2963973806927471
H 5.085303361567423 -0.4429616022665597 0.9224866335318263
H 6.596052628497818 -1.2835665372356209 2.1345610747098744
H 5.7550992111715695 -3.5683162074494663 4.0229279199410835
H 7.456428024448982 -2.8280205091342956 3.8108167905455286