15

C 2.748045706600589 1.1509841000649685 0.44950717058695416
C 2.405245455049896 -0.13407527543993003 -0.2746528552922054
C 2.9607314215084073 -1.3847010991074356 0.4120447881777216
C 2.4459915584950176 -2.6791946856080546 -0.20866580035272247
O 1.568526068884465 -2.735910072347591 -1.014213949578534
C 4.421938908068053 -1.4307551064932134 0.44793873657972477
C 5.612251944575588 -1.4931469685735188 0.4559798678199298
H 2.331734772799049 2.011726237448885 -0.07772135760605799
H 3.834379031335733 1.2892115367872157 0.5136239130657675
H 2.349509892664789 1.1519462346261249 1.4676753704261678
H 2.7818147892385654 -0.11416931495192406 -1.3047380109597173
H 1.3202957325219318 -0.26290204465069933 -0.34819360151491513
H 2.5999623646762484 -1.4061825295107937 1.4539342416569119
H 2.9487553687690387 -3.5928029213639574 0.16613962423047998
H 6.678609463749129 -1.536520503926072 0.4599236182583196