21

C 3.0790997696133253 -1.1710762264570853 -0.4096317975013247
C 2.5362564164503296 0.2436875445028889 -0.36355017809333345
C 3.0139097986885672 1.0943611759169594 0.8173096912823304
C 2.4118527230389195 2.4896802168706342 0.7401737975526539
O 2.6147482087956133 0.4742456476622769 2.0452607253661337
C 4.540302689884166 1.156272453792338 0.9246687379898548
C 5.270264458185178 1.70412685842679 -0.2819734067943278
H 2.590406638569994 -1.751018219067357 -1.1929569876274422
H 2.921403057808414 -1.6834228739738155 0.5423025095321015
H 4.15715463167824 -1.1864449899280005 -0.6125492136458052
H 1.4388626465302898 0.20780255601742065 -0.31378224878099686
H 2.770982710598721 0.7666456684603143 -1.3038467940028713
H 1.3185604592702318 2.4246807934488435 0.7261523796266968
H 2.7168107729122366 3.0084614677597368 -0.1734634085499822
H 2.7112652790053593 3.081800580949162 1.6021207649951976
H 1.649182034062615 0.4748635349930626 2.067774214164793
H 4.89188787015904 0.13958739262218633 1.1447274134835268
H 4.776108536134472 1.7479530331956987 1.8180678459080102
H 5.083925142787743 1.1119644480369861 -1.1820914793303252
H 6.350837114167267 1.7085603715596802 -0.1035882783366814
H 4.974945666851234 2.7337145459743972 -0.5032232415199775