19

C 2.8147028236904768 -1.2167010547207102 -0.632189145770507
C 2.4251191458205756 0.10501982894530297 0.0008263858893855603
C 3.002119178405397 0.3393932939367252 1.4004888358978338
C 2.508112221962196 1.67026181709147 1.9550168668791854
O 2.6190626703687134 -0.7144469140571461 2.280211985538889
C 4.509349991430117 0.35745242761380835 1.3532060942851665
C 5.314431865528372 -0.4370554229043803 2.0351290923337455
H 2.3190444896829563 -1.3446796193074693 -1.5918926485223286
H 2.529296148452598 -2.057640463823468 0.012741161256171306
H 3.8945345576915815 -1.2795518664718015 -0.7872872794865868
H 1.336357045991065 0.17893425820127618 0.08100585321216816
H 2.7401091406300466 0.93401355439623 -0.6422373793387784
H 1.412294275275149 1.690343489003515 1.9720787009352998
H 2.842330423328031 2.5065193781366983 1.3272508164733707
H 2.8813406815886253 1.8239518449160566 2.9634939850511133
H 1.6576629564538945 -0.6678105946754029 2.374923548271602
H 4.922711732436614 1.1060246162335898 0.6884910539925597
H 4.916487912347856 -1.196297489559786 2.7085369403486084
H 6.391297170170628 -0.3469393227385778 1.94690280578194