19

C 2.091750420105546 1.4555126573054145 0.7559672958503323
C 2.54991799907006 0.4101508732125229 -0.24749142110656427
C 3.1831280195793887 0.9912456729748019 -1.4889702525344046
C 2.2234450678793523 1.5987105034986895 -2.47448512985534
O 1.3764031512997308 0.6115947294618588 -3.0545907805499257
C 4.50594348308221 0.9489819181685872 -1.674229352547421
C 5.305218179551806 1.4787811117744953 -2.802494304520426
H 1.6282202830687786 0.9838460842070229 1.623738871857902
H 1.3571855729772326 2.1417333038169875 0.3196227493281223
H 2.9386348726313307 2.0540595920934006 1.1023354593887011
H 1.691420283474517 -0.20579405690726077 -0.5555158674851925
H 3.2626514672462332 -0.27448840894999266 0.2255125416651523
H 2.756677289053656 2.1516632936025544 -3.252006619299623
H 1.5529634428537966 2.300342386653093 -1.9762166891688584
H 1.9352050696238186 -0.06085287236764769 -3.440527049013388
H 5.083540941770127 0.4655096358434187 -0.8891782620798603
H 4.705151495292828 1.8937979749224423 -3.60928727021568
H 5.9349739898488325 0.689034729288504 -3.2274442315831564
H 5.989324624753861 2.264514947032961 -2.4580276688757525