19

C 2.810936232103586 1.4491549826530588 -0.29752675019897057
C 2.426179765371383 -0.007980755960346232 -0.11991409964091516
C 3.0440128089455856 -0.6657995507119223 1.122469391260475
C 2.4951514518283533 -2.0723383934112807 1.317117296806806
O 2.936733766945647 -2.679389924228671 2.500488999240901
C 4.539397158902979 -0.7197977695776094 1.0347793428075986
C 5.380962089652264 -0.3816368646555086 1.9963695257168388
H 2.341711762604367 1.8699215540052965 -1.186190519759012
H 3.89271466434681 1.557192727777771 -0.4051581252866421
H 2.4972412461985027 2.043757587149036 0.5562843857248401
H 2.710333450238816 -0.5862059550987349 -1.0014088726857904
H 1.3364227997544176 -0.10083469148148282 -0.04559324823752908
H 2.7749557241111007 -0.07718698041002618 2.0060822808113454
H 2.7479078406314157 -2.6931923190375864 0.43764818557071083
H 1.4022924083390538 -2.0335511036076435 1.3776367394121574
H 3.8955597763074534 -2.562577501234058 2.5446895516301913
H 4.941722497472619 -1.1330970016455453 0.0993251378464331
H 5.022600147166483 0.04189336718077109 2.931519553851374
H 6.456247893771094 -0.4812191764305842 1.8856900006620434