19

C 0.676734192940702 -0.016446653149152474 -0.10307660127500727
C 2.121791653566241 -0.4716720305440193 -0.2322808121631023
C 3.0408769468372117 0.22120455019209317 0.7469937926008768
C 4.494142732566669 -0.2030645854888708 0.6563822567079325
O 4.861062087928432 -1.021841772496595 -0.1436007897519861
C 5.445840387990773 0.4677117581863947 1.6244305068121185
C 6.875119408329211 0.011672106881917908 1.4770732715867896
H 0.032786981315252386 -0.5285123622565168 -0.8190939113926733
H 0.5808673458452255 1.059497178099253 -0.28335305815971357
H 0.28555111184772375 -0.22421927434629985 0.8911697281361102
H 2.480453979772687 -0.297420840260614 -1.2522427114936103
H 2.188822278376915 -1.5576558481134302 -0.08589173423371292
H 2.707749980250198 0.04921900890011596 1.7864439711889235
H 3.0040561185345123 1.3150161942087324 0.6162356518283618
H 5.061535610955227 0.29270058830142637 2.63885938832129
H 5.358677775611603 1.5498082503545767 1.4772157910786603
H 6.957174958953304 -1.0632546531864344 1.6543398038252328
H 7.521910943152495 0.5237915137159347 2.199690212884607
H 7.257467293489843 0.20567569158450374 0.47619956375044936