15

C 1.4259042241132103 0.7481355530987727 0.06444532051482495
C 2.850436212850368 0.2690416262144409 -0.16191040537814155
C 3.2878546343816697 -0.7526551502022596 0.861338529827205
C 4.699986090108894 -1.2521937488615513 0.6747884228038751
O 5.433240261201088 -0.8756675525591034 -0.21005800030229405
C 5.151825480185953 -2.2314508030823212 1.6411089572474316
C 5.493606525879518 -3.046084577293121 2.463136525262006
H 1.1255676822741822 1.4847346024866062 -0.677467534380065
H 1.3183455004699165 1.2050440269199998 1.0537137586594136
H 0.7222166549925821 -0.0834625470436848 0.01733512394472412
H 3.545386625893824 1.1213214293733809 -0.1388198449989685
H 2.947715695189786 -0.15974422473677471 -1.164494214946569
H 2.630522859568398 -1.628310920661956 0.861876631463386
H 3.2247685787298614 -0.3487129778408647 1.8834436859653902
H 5.824103742932207 -3.763152872431709 3.1680800583104363