19

C 0.9971560927342232 -0.28612874486788625 0.4195088964053628
C 2.493002240603068 -0.07741240952669684 0.2670112667576288
C 2.961029889343651 -0.1858312706490585 -1.1719995837326354
C 4.454492587494126 0.02524321994825921 -1.3095475096642892
O 4.7966360315937875 -0.09270660569336321 -2.6708619211800415
C 6.092101232201387 0.06496103323506032 -2.984712467736685
C 7.116151951677378 0.32640683787936714 -2.1780166385215214
H 0.6810171740375852 -0.2083369069044924 1.4586667217483913
H 0.704416059110592 -1.2763158425896215 0.05920054824016701
H 0.4388296094609354 0.4566311285755754 -0.16443656533637133
H 3.0310459593247785 -0.8066044592835248 0.8848802233138467
H 2.762780058920147 0.910574761140456 0.6705151256229003
H 2.443375749601358 0.5539467409782259 -1.7931969711111309
H 2.706593114093156 -1.1759542988657623 -1.571020067771527
H 5.010282914984489 -0.7167888258912198 -0.7199611711333761
H 4.7452043190605036 1.0226500220315853 -0.9447688504467485
H 6.236179315420763 -0.05359185723353894 -4.062019861965231
H 7.013537204025344 0.4476882239020962 -1.1057940698896094
H 8.108195584874077 0.4210126448717673 -2.5978835777527833