13

C 0.9436414863928599 -0.1965650750744253 -0.10782755910295709
C 2.1325612089649564 0.22809253843726832 -0.5185483916422998
C 3.3980710082653314 0.10496243248388674 0.2829186694391867
C 4.251818903413705 -1.0414733720129536 -0.19009486209605847
O 4.677814895131419 -1.9023039457927267 0.5282967096185522
C 2.222693580657634 0.8374940206694114 -1.8543530990086137
O 3.247423828747418 1.2515092931824665 -2.3408769687025837
H 0.7897569888136687 -0.664222409598202 0.8589917844301468
H 0.07019719328357202 -0.0869474163984096 -0.7495302624786091
H 3.194055793360433 -0.03275065989244561 1.3417733274043722
H 3.9871373688917 1.0132912060117583 0.13774384382862473
H 4.487638922021925 -1.0467396346617546 -1.2771900066245276
H 1.2653101856802746 0.9083194239258529 -2.4019248097716415