15

C 0.6128032519183182 0.0922856530755668 0.2064301028225277
C 1.9986837381832994 -0.0473703079530963 -0.3029291103497513
C 2.522935212151893 -1.0800483971847188 -0.9550667287326156
C 1.8529688225001824 -2.3576130850763746 -1.3201644089517164
O 3.863790080210086 -0.885876460627065 -1.2992780825780084
C 4.6511545378454615 -1.7459699782402236 -1.9574256408887623
O 4.378080598958833 -2.829756881037008 -2.3794048073342915
H 0.6098777432470819 0.26156933956423095 1.2931794699757764
H -0.005428960160941026 -0.7823095507598263 0.014310424843421843
H 0.11597021946317003 0.9614589938424755 -0.23237345048099772
H 2.660760683251942 0.7950144364051762 -0.13487755048488373
H 0.8176167134775578 -2.32448359380035 -0.9698292695952655
H 2.3497192370425775 -3.2116302138764636 -0.87626624154922
H 1.851716185088068 -2.513320009262661 -2.390603776251518
H 5.640089631239712 -1.280520407193115 -2.0611321008744903