17

C 0.9878897999864114 -0.3874056971676761 0.3573435129358753
C 2.424956646510812 -0.11532529404942742 0.07758773726884584
C 2.9692780419575846 0.9229216310400243 -0.5655258670377117
C 2.18753221559921 2.061489994433695 -1.1359632919530442
O 2.5343468918054683 3.3155235969870955 -0.5447131102681578
C 4.457025676360093 0.9986394754501401 -0.7669799094928362
O 5.056903504248161 2.0854187939428077 -0.09035921001686678
H 0.8279552803974283 -0.5481205888184273 1.4294116950696796
H 0.6592722981608543 -1.3115257863626397 -0.13758239390240828
H 0.31328635993259757 0.4152163769493397 0.03345480023038327
H 3.1041148495340853 -0.8780837425794005 0.44324145191997477
H 1.1098282223984404 1.90555424633131 -1.070444482799001
H 2.4355004286903448 2.1847651849390806 -2.196094596913839
H 2.3170033165941466 3.2524563834445983 0.39632575269671655
H 4.661227602717561 1.0559586012979467 -1.8476794817560795
H 4.931816987071571 0.09202916860703247 -0.38444256958578665
H 4.531785979996045 2.8709560206127884 -0.2898991292712558