13

C 0.7546496444873184 0.3794680771465442 -0.1953156566547805
C 2.202507004269224 0.0885637472173648 -0.2844306508307165
C 3.1687075238489233 0.8125019192124379 0.28241807800816443
C 4.581367841379476 0.44325849390162153 0.12352554224290192
O 5.0019820252292755 -0.5005573622109122 -0.5050710825580814
C 5.601989617643334 1.3365772726780032 0.8240149120414301
O 5.327613105020541 2.299086829205503 1.47895469884053
H 0.21993547579104383 -0.48319573258428383 0.23720177589657965
H 0.3247605958990845 0.5219960690588623 -1.1931793171271745
H 0.5446973952130144 1.2587652330722923 0.41496002648792607
H 2.5102409000881134 -0.772223042099372 -0.8699071139372424
H 2.9562838995975382 1.6957051155424174 0.8811671829262611
H 6.649987282959268 0.997714711052585 0.6541245394824172