15

C 0.6101222370592277 0.06306369062125992 -0.029614872349901067
C 2.0786363996444903 0.0727814478158495 0.20593924471291605
C 2.9908763263599254 0.4554714968972531 -0.6799648373535112
C 4.462540483259493 0.47473596451443 -0.4073212591413475
O 5.187566507035068 -0.17597857586867166 -1.40278739126707
C 4.928682625425205 1.9150971895590283 -0.2816710401360869
O 5.796311623673663 2.362279050847653 -0.9821954061591888
H 0.20165008999077894 -0.9371203809281321 0.09918270079730507
H 0.36038222630138567 0.40692905023243603 -1.0416843463007655
H 0.08961762506223349 0.70437969016763 0.6902798041206201
H 2.4129354527901565 -0.26638934944756215 1.1884636581976182
H 2.6942509820575897 0.7776579572012101 -1.6772207197688092
H 4.646907845773842 0.020233883996223792 0.5818822677919449
H 5.834422822185685 0.4716602864100054 -1.7338118315016822
H 4.423962849600961 2.5159942415884964 0.48852878749117223