15

C 0.561829485105998 -0.1920310187301622 0.09326475174498498
C 2.0297121788738943 -0.29191266273766375 0.3063526889223556
C 2.8544421146845966 0.7379271290043709 0.4132201532484807
C 4.320030935309009 0.6021763611717422 0.6053985281455097
O 4.744461304155199 1.1794074025481034 1.8598833189850783
C 4.749927020729865 0.3726068406919064 2.9171780087692096
O 4.482682234294056 -0.7888755274464287 2.9293041574532523
H 0.27016037182047703 -0.6988878909983576 -0.8306236836075054
H 0.22666098778499408 0.8457211786921581 0.0365450474615938
H 0.01767687900120008 -0.6922701694447966 0.9071499203048596
H 2.448648994069054 -1.294281367339611 0.38900351130399546
H 2.473201470363922 1.7573904503337632 0.360893575246045
H 4.882993358313941 1.1583082425041793 -0.14921135326549173
H 4.625106262166056 -0.45575089153081294 0.5843252810697477
H 5.067412721158265 0.9530889264283549 3.8064050906487275