15

C 1.0686729205485963 0.03985588469402961 0.03490896692265732
C 2.5929372669510102 0.03909046976533188 0.0208209001194051
C 3.158500651251997 0.3432272217768665 1.4189547280672687
C 3.0769872200987103 -1.3401433351011638 -0.3763419227192762
O 3.7150737920447816 -1.5989138743370175 -1.3512713499646947
C 3.1545191649523443 1.0665223117289693 -0.9453319328131592
O 2.494612832338768 1.8752607369008127 -1.5323132321143897
H 0.6974520277876568 -0.72430525910835 0.7149052545954832
H 0.6712845012725728 -0.14194544184043406 -0.9670166296230889
H 0.7032231063562726 1.0149523012182955 0.3678688328631735
H 2.8840210084205973 -0.4492394579161534 2.11883780977037
H 2.7483240444991854 1.2856027402595571 1.7955675807441422
H 4.245867162367814 0.42104296450656004 1.4081719618576225
H 2.774298359066038 -2.1357964527700184 0.33803878895263045
H 4.2640313125454306 1.0422874235650845 -1.0467661964558268