17

C 1.0230573112553087 0.19662185304820684 -0.3101813855191433
C 2.505374648159906 0.2903243669291526 -0.6645221362669956
C 2.7720438399436595 -0.08828441996085032 -2.106680670331855
C 3.037752839958324 1.6813038905469846 -0.35938646490090875
O 3.2814543989349874 -0.5685674843954373 0.23388489233698553
C 3.1069837221939918 -1.8735857770570221 0.2585755153320921
O 2.335770641198763 -2.53390754238121 -0.38527459766861893
H 0.4668276323803051 0.9360887326064138 -0.8950344165797233
H 0.8760385564505065 0.4211491146108596 0.7468192981670042
H 0.6284551284174067 -0.7950027216818993 -0.5302601717601403
H 2.2878318299035136 0.6402853783457587 -2.767632504028062
H 2.3903952169613536 -1.0772235730663653 -2.3434687942074306
H 3.8440580139343137 -0.0645029368587287 -2.3144589923943677
H 2.528598271629305 2.422226792275309 -0.9742038057284426
H 4.106516639969909 1.7349706897481094 -0.5721282390147886
H 2.879166233984241 1.9270403943078174 0.6886296610063629
H 3.800893845799722 -2.2997528866556487 1.0059315330212417