15

C 0.9838281413981975 -0.020549949770117374 -0.25031108900944304
C 2.474242543446169 0.1183442521726099 -0.05518672142697774
C 3.1598306453238085 0.8084067156188757 -1.2438644266266252
C 2.800486732273848 0.8911696728533988 1.1893040218016533
O 2.0467802906493167 1.619410472782715 1.7704566826471289
C 4.212222165184171 0.7484513067762355 1.7830546551760793
O 5.014533688706759 -0.043919489479007826 1.3952336171727555
H 0.7731954197033624 -0.6007183016829069 -1.1593864703047456
H 0.5132464046252594 0.9524837435415159 -0.35016904199426774
H 0.5073478712957793 -0.5352793073803873 0.586068526677842
H 2.947571377369896 -0.8656816141462584 0.062060248048486595
H 2.7497515656527645 1.8107100555455402 -1.3907327344966192
H 2.9737519272083217 0.2311801411270241 -2.1529646909385343
H 4.233297306236414 0.8830387265359948 -1.1136997945832887
H 4.394204063605071 1.4398388260103017 2.6289138662079345