19

C 0.8814399812765801 -0.05008125159174942 -0.28639399032473206
C 2.380362572652774 0.11453666484480601 -0.06637726439947778
C 2.9365304225945086 1.2074440782127738 -0.9655267840858743
C 2.735522670993458 0.39943212287106267 1.3942433718607843
O 2.122423017165704 1.5934855595619988 1.8044900239804136
C 2.361494378415437 -0.726038933261456 2.341372105849683
O 2.676892404480943 -0.36836430892932376 3.6804556903507284
H 0.6769677484773571 -0.19608927763271927 -1.3557294651346146
H 0.34409984240914215 0.8363308460986306 0.042064332556040133
H 0.47516376586016135 -0.912892020042059 0.24535619321414195
H 2.877481905583346 -0.8256754521719668 -0.33014469559707255
H 2.482618802275557 2.173107017245688 -0.7303736821415064
H 2.7429577982096682 0.9898332467591959 -2.0174198575939215
H 4.016783013001464 1.3229444633338316 -0.8422090809423347
H 3.8355665699705472 0.5156254048331359 1.436019846297516
H 2.146243302775736 1.5982803892363011 2.7677129293953375
H 2.8517680000986627 -1.6574129056239002 2.055550672038269
H 1.2861259264719955 -0.8890962772201109 2.3360769178051535
H 3.633494443815313 -0.35813162304432355 3.780629860971687