17

C 0.886840086074663 -0.21117557253550967 0.15080958457976842
C 2.380924857055433 -0.1575056518475988 -0.11325514343223879
C 2.887607478381176 -1.4663580344865839 -0.7079056242065087
C 2.7478356055461566 1.014082770821552 -1.046818936717233
O 2.132154754018792 0.9172953691508371 -2.2934698139297747
C 2.422673557607571 2.33725589092838 -0.4017308606992936
O 1.7445812983752493 3.156623622532313 -0.9476718785079522
H 0.6485674676048859 -1.0488933661280457 0.8136824148287224
H 0.3368976674697988 -0.34308082859421746 -0.777392046441712
H 0.5159932427255693 0.7002472080305411 0.6327336836846016
H 2.911898954405119 0.024040635759419126 0.8335049818498683
H 2.4205756613927036 -1.6488647742318776 -1.6773266914701055
H 2.6523281502991587 -2.3046648239077787 -0.04505001442494753
H 3.974812970555947 -1.449797358432079 -0.8507561903282534
H 3.850481162478827 1.0099234558750125 -1.156838521307717
H 1.6814669534201119 1.753735203978685 -2.4354922228976266
H 2.854666720736788 2.510128408467749 0.6049212621309655