17

C 0.8164153495923369 -0.06681567328766999 0.1576935650641964
C 2.330175975642457 -0.21540868977385041 0.10191861324231509
C 2.7341303710078653 -1.5798451071618769 -0.4284536502940624
C 2.9091001114764627 0.9081632297289731 -0.744207397814272
O 4.335712106404857 0.8792354394884928 -0.7862557459862264
C 4.981866064926929 1.5457848598584563 0.170179857991367
O 4.470933049597562 2.1614893414335916 1.0592443323397653
H 0.38224171411294966 -0.8526274495756744 0.7780155537183857
H 0.378988551671696 -0.1515489273205956 -0.8385845654259877
H 0.5252873887757534 0.8995452224160982 0.5866901808713675
H 2.7326955045105112 -0.09392094705480393 1.118704547759682
H 2.329275313054056 -1.7506531946149702 -1.4312405038165303
H 2.355234966026617 -2.378450489285427 0.22575134367515903
H 3.8239728291397337 -1.686316962417399 -0.4827785442355504
H 2.584037497620694 1.875146872078158 -0.37425316564362426
H 2.5912894040785854 0.8037747557821495 -1.7905154033389026
H 6.063678202776955 1.4428815456608906 0.014860438180747847