17

C 1.0079108501960727 0.7179797042774877 0.42250531493624915
C 2.372703012127138 0.46522710288774455 -0.20590672388215753
C 2.3645154553356273 -0.765976506483228 -1.128457355626609
C 3.687520455751933 -1.0058236743504554 -1.8574610376402867
O 4.8099249135091595 -0.9424386683860925 -1.008881508271644
C 2.8586758338194866 1.6666004678890065 -0.970683155116962
O 4.018282248248644 1.9506135495913006 -1.127725964133731
H 0.6784426863790659 -0.16704938729801547 0.959792632698412
H 0.25784771063389844 0.9376291008847544 -0.34811352194569367
H 1.0298303710295094 1.5535574042756928 1.1242896244909162
H 3.119535215568469 0.2906828667659649 0.5746151553092352
H 1.5598562766149704 -0.6735075259746448 -1.8702366995453619
H 2.1304286847141363 -1.6218302920454322 -0.5003437120756921
H 3.7894110889179697 -0.2958408414763122 -2.681825194681026
H 3.674380758202424 -2.0078028116738236 -2.2907386697441257
H 4.993705665309434 -0.01400619901686736 -0.8534247657986921
H 2.063072541090024 2.2975319262670215 -1.4455834875453522