13

C 1.0082850307482025 0.08995154914685269 0.09080407372459315
C 2.4510905600762753 0.0353856627103178 -0.007110426175018169
C 3.6528742991455334 0.0031703116220948664 -0.07390254766507726
C 5.0931038306172365 -0.05941533587694645 -0.15386897770244096
O 5.700958021137137 1.2372578172413489 0.0030932053910802493
C 5.992823451702793 1.5961415995287742 1.249843205924574
O 5.809608882587688 0.946055761995944 2.2374855250613703
H 0.6011628885200442 0.8847260307133333 -0.5420386254766996
H 0.6850228394819055 0.26455396490702365 1.1218794636997496
H 0.5695252370077165 -0.8626169197937451 -0.24589496883382905
H 5.414218645995426 -0.3896134474400112 -1.1474678753162393
H 5.495314653677174 -0.7406500287209891 0.6019101518449396
H 6.433995461911265 2.602612867944898 1.24233498098373