15

C 1.858043964744404 -0.9846409872980915 -1.2210219843374244
C 1.8247058274623533 -0.064290188015065 -0.011626054273509904
C 2.537923110350449 -0.6154818347635329 1.183279496733841
C 1.9634991949514846 -0.9493141816881964 2.324995341148659
O 3.894438424951505 -0.7257054597509629 0.8862026313993281
C 4.821703616341004 -1.2582028355800454 1.6904539288842817
O 4.666981527557847 -1.7215864867053747 2.7775453680600735
H 1.3396051309729629 -0.5239287268357713 -2.0704086339315873
H 1.3741483740084746 -1.93287894122198 -1.0056989747100906
H 2.891337793978036 -1.1836597167531062 -1.5325820631160876
H 0.7968747449457675 0.13987092765523962 0.28383074384728585
H 2.2859745728170715 0.9064961088215752 -0.2711216711013528
H 0.8906137499597614 -0.8069317330753747 2.412463614125639
H 2.497004589580748 -1.3624582778198038 3.1606202028709354
H 5.7842877284237675 -1.1899848723076165 1.1730953338816277