17

C 0.9350048309136451 0.11957486658849839 0.34760029444961055
C 2.3915538049154166 0.08430014814999538 -0.08938820506686258
C 3.1940773860940013 -0.975391465333733 0.643401330482421
C 4.648603903657755 -1.01214295111142 0.28509219750332165
O 5.2064698709950985 -0.13967127780920777 -0.3357248598327259
C 5.452413424624873 -2.209527113471971 0.7336523460137748
O 6.795179200927058 -2.068176137716955 0.41452711323356417
H 0.375121813864646 0.887718353492369 -0.1936559405624242
H 0.8428500515789593 0.3359750495476416 1.412706258886206
H 0.44812965555269463 -0.8415306213895748 0.16045919963308586
H 2.8578150720814963 1.0567667500366313 0.08108511336203751
H 2.454708478634318 -0.0940896804824454 -1.1679825624779765
H 2.7665842522664366 -1.969798822492912 0.48260960067904024
H 3.136139221646266 -0.815990779978735 1.7285948153769803
H 5.0182244546338755 -3.107926498161818 0.2521246256342544
H 5.314131293882352 -2.345955687346954 1.8174632907845374
H 6.858075628952749 -1.2424771503119159 -0.08288370313637777