15

C 0.963713337663979 -0.01628337033065356 -0.08149426685499098
C 2.4392748449749724 0.2075055420187855 -0.3645651786757826
C 3.324274402173147 -0.7931584210489514 0.34768728403854754
C 4.787609682315372 -0.6036228717945409 0.10081044156873113
O 5.277663403107794 0.2519688091818275 -0.5975863640994903
C 5.747562423952132 -1.5706126637724596 0.7948276572654535
O 5.391699145687655 -2.464725920529916 1.5112904355417744
H 0.34972841055349563 0.7119886122715322 -0.6125363606327807
H 0.7497367535059314 0.0691219748892442 0.9831267488339142
H 0.6468031297200585 -1.0156238365271935 -0.4093096820656208
H 2.7308612839839204 1.2248702069349613 -0.07505624025242721
H 2.6373302651396133 0.1461820795230929 -1.4397512129499217
H 3.0771333590672345 -1.8297461517452605 0.0815678893817589
H 3.1784076085208546 -0.766136750722038 1.4409373524469784
H 6.8196641541835685 -1.3711169367538873 0.5544441680596193