17

C 1.090274102144743 -0.3231629508063097 0.020113561815812208
C 2.6075758494382515 -0.27641895635932573 0.03052089286036486
C 3.133063913458691 1.0315755842138918 0.6096082333703623
C 4.662167245941833 1.1107813393111123 0.5621217860268859
O 5.143143328561517 1.0560748959101822 -0.7512365514326839
C 5.147759680605721 2.3566283889784456 1.2459391635534374
O 5.851335586197802 3.151853742257621 0.6984468089475708
H 0.7263568955222225 -1.275647942801246 -0.3896781512423971
H 0.6643772846162301 0.4840179726977159 -0.5877619396353668
H 0.6799315419411687 -0.22286147268901013 1.031268850585389
H 2.991493391388198 -0.3938650674806988 -0.9879299117407314
H 3.001829346190653 -1.1102190488197654 0.6121606558986517
H 2.804667302763344 1.1448324541984136 1.6433543333648206
H 2.727187993403189 1.8793041016224492 0.03845544027254735
H 5.063684638391334 0.25914400807750876 1.1427425425177515
H 5.69933127001293 1.8438726646133379 -0.8598663224917434
H 4.810789602715868 2.495661965864299 2.2928298622731007