17

C 1.0479622320100332 0.0026515406901517135 0.6501920113509985
C 2.5378616266888656 0.1742733551141558 0.40641517636390934
C 2.9013745011805026 -8.410462825422273e-05 -1.0512300064466849
C 4.374828028786569 0.17528951471964305 -1.3247671516886395
O 5.214288645522906 0.41869856463252825 -0.5023542744038045
O 4.6482093435287695 0.013317302806412667 -2.630506750736055
C 6.019680501468925 0.15552415812392612 -2.9902121713097762
H 0.7984556735926042 0.12678755986480483 1.7007279891323386
H 0.7112596794588388 -0.9994917418111471 0.3439759557359811
H 0.4647041953733722 0.7305787689983411 0.07651860401853024
H 3.1007081731888135 -0.5428702119702262 1.001354741989987
H 2.8590135426225216 1.1609850954201104 0.7443190484602654
H 2.368319422417591 0.7150472774677146 -1.6848101346534434
H 2.6176915739538544 -0.9818044608068941 -1.4250991508198616
H 6.061921743875969 -0.006705158730386839 -4.062580418639483
H 6.626862501471208 -0.5824289033213642 -2.466296011521697
H 6.379580330047582 1.151583283426413 -2.7416272683821714