17

C 1.4534267426856486 1.1157278103265202 0.23049037650756543
C 2.3332512498724385 0.13975759373648838 0.2566332335138972
C 3.1037433545508324 -0.2674235483652742 1.4678763740310867
O 4.478233472823827 -0.3511517067077465 1.1328150282419285
C 5.251891981302266 -0.7970052233494302 2.192426145764925
C 6.672264299370177 -0.3786669845358553 2.1939835999140924
C 5.718227124143173 0.1853474388417555 3.2199504949591122
H 0.8868006188771926 1.353975313892671 -0.6603679371921267
H 1.2482550202816465 1.728076845853241 1.116003086664573
H 2.533040514426207 -0.4453434136301523 -0.6383387585012473
H 2.753311183363035 -1.255049888539923 1.8196220723453511
H 2.945010125559158 0.44310244733257964 2.2907433254218867
H 5.013062900296887 -1.812930687647607 2.5336972882363904
H 6.972967604620741 0.28321805820260776 1.3930466370387757
H 7.425792963901243 -1.0877513156922332 2.513821752547818
H 5.412810856464417 1.2097121483352342 3.0857311734780057
H 5.815058880605817 -0.13444573960995587 4.252918213287437