15

C 0.04573133195931586 -0.906396234977538 -1.4483997619034896
C 1.13143919740689 -1.1094388593528737 -0.6919141560746725
C 0.908661515656513 -1.1694397114306403 0.7777146074022405
O 1.7704935125302104 -1.34990061988206 1.6000083724758167
C 2.5135045808872585 -1.2677791343692262 -1.1558995347430314
C 2.816302382534906 -1.9756922358405724 -2.451448198711139
C 3.020541822963198 -0.507990880820298 -2.3623117975467243
H -0.928565164325788 -0.8077571598303903 -0.9842830208063007
H 0.08301636883604598 -0.8431470007639895 -2.526955737835295
H -0.15092500897848204 -1.0493735234032027 1.0751443222631207
H 3.226551801238008 -1.4234516691247796 -0.3513542191489239
H 1.959711530763406 -2.343855440387645 -3.016036746430524
H 3.680308687144144 -2.6236628949348164 -2.4886381787331393
H 2.304811153896421 0.14036514090930105 -2.861451194419198
H 4.025377092872522 -0.12346867702250172 -2.320279666991778