15

C 1.7866026282120324 1.2652963056594682 -2.590850855066591
C 2.6566240927626503 0.5434906049838716 -2.1736850944439667
C 3.678163923790296 -0.33577378866736285 -1.6563852299487807
O 4.954902046821827 0.09003569051454659 -2.0912335509284876
C 5.968966569686404 -0.7207344758367266 -1.5861123132341726
C 7.29516192463495 -0.07768394241036124 -1.416568056330788
C 6.489541861502483 -0.4508526188626065 -0.2059812951860572
H 1.021661739926914 1.8989537230592735 -2.963308345839137
H 3.478667538852085 -1.3684027213187357 -2.000618727017628
H 3.6381109241832106 -0.34995005625134556 -0.5629006864464456
H 5.926847585806885 -1.7514719067072135 -1.9246466685118773
H 7.348881154107823 0.9769453910627727 -1.6676919634100018
H 8.179747367947563 -0.6539641379273495 -1.6636140982545562
H 6.02213506093719 0.35656488035153017 0.33801450601216654
H 6.807774558474505 -1.2884745467272867 0.404622413908343