17

C 0.31822727391795685 0.585686333838254 -1.0203093986046812
C 1.7763135702084207 0.2919811312839179 -0.9501948870515388
C 2.5325545278909165 0.08659448469830114 -2.0158565527100722
O 3.878069985386412 -0.13675375656948652 -1.9307882937063439
C 4.458655619341903 -0.6746409342212886 -3.074502722547562
C 4.77466315716378 0.22270025936410157 -4.215838364497534
C 5.863091981497693 -0.304458770310322 -3.3246866606585948
H -0.26724795321134254 -0.15075187641675086 -0.4668171586771285
H -0.03455141890596714 0.5820981447283995 -2.054404277174279
H 0.08735180338017771 1.5622112303680318 -0.5960126198632126
H 2.2424987329376176 0.2519068044533643 0.026164658248469193
H 2.1401707954110054 0.09734870201937748 -3.0303940184972986
H 4.137885345280702 -1.6967314514807235 -3.2816360542694727
H 4.510098461543236 1.2660843028834565 -4.108353688633958
H 4.6852558730327845 -0.16606080514509267 -5.221009909903985
H 6.3096755776475755 0.3913038705310816 -2.63361107565461
H 6.54335725977966 -1.058934452265581 -3.715329749506742