17

C 3.663350442442299 0.7071665089624887 -2.518577360783735
C 4.130940617888816 0.1114425103041849 -1.2316082638348425
C 4.690525266067127 -1.083217070326312 -1.1169844794575658
O 3.89193286744579 0.9798592089338527 -0.20871812820011387
C 4.222289844828077 0.5468523560838036 1.0722341069008328
C 5.615485014042626 0.7423592968944149 1.5650085140071492
C 4.505415784937661 1.6235546153688005 2.05926267322065
H 3.8442808276023923 0.02816500622367775 -3.353660450756928
H 4.171076117283896 1.6484462889590272 -2.7093984507798554
H 2.592288368793998 0.9223465782678879 -2.4736692661605226
H 4.8264547943799885 -1.6968591713100039 -1.9913656072851802
H 5.042112171352031 -1.4754392967416177 -0.17006419093535985
H 3.6687099573659037 -0.3287994713189744 1.393899346640736
H 6.319799980601414 1.1772766329553945 0.8660813435393714
H 6.034575841008624 0.003970892343261285 2.23374377994897
H 4.473018985320901 2.637138935061261 1.6867806099433789
H 4.140843085778079 1.496874939249112 3.071894499632315