19

C 1.0955281558533205 -0.19327688784645755 0.13812363918290144
C 2.5920326010196084 0.055247574598484575 0.15612335228759333
C 2.947585209338514 1.1605917282100513 1.1360450549274281
O 3.278564630590064 -1.1434275129316214 0.5215118250647139
C 3.0788997699201515 0.4227375079948913 -1.2263085510034955
C 4.495897493023285 0.19427912384249055 -1.6535988791736995
C 3.3807687783917704 -0.624618898012463 -2.2550998751648987
H 0.727761287610919 -0.4745447058934884 1.127841396563551
H 0.853558522049862 -1.001787064625056 -0.5620247535902847
H 0.5466203375733635 0.6983380816067005 -0.17695525569207657
H 2.6076738958052554 0.9108119888538817 2.1521306924729613
H 2.4659728130349405 2.1079985292184182 0.8582054575600938
H 4.025139942960979 1.320778826626284 1.161769583551374
H 2.979144130179751 -1.3925530635723387 1.4033546257534464
H 2.607764709307608 1.3384934010643286 -1.596775394776762
H 5.136487991769529 -0.3130367821465612 -0.952088197946907
H 4.975498421364765 0.9404029645530552 -2.269374123559124
H 3.3134311802218996 -1.654538160286075 -1.9417588978669658
H 3.1032458422131417 -0.4259756079340795 -3.2804526076560734