17

C 1.13998334092633 -0.09673503932015305 0.12878535293525717
C 2.6423111500854337 0.00355875243257553 0.03582461630521711
C 3.143183905980002 1.2668200149121212 -0.6152342146807843
O 2.3918642182267185 2.120207232962643 -1.0178401091305023
C 4.623874735477547 1.4029328742746228 -0.7352100098526732
C 5.1510224880254585 2.134855438100855 -1.9446195497015875
C 5.191036230624953 2.794537503695625 -0.6209268387949809
H 0.8321525879676115 -1.0299343637160239 0.6101204975136736
H 0.6858644329040587 -0.0428007512389716 -0.8586705154126495
H 0.7296953542969487 0.7332358763995139 0.7084572041050934
H 3.069214599168408 -0.8408815505652483 -0.5318318077663033
H 3.1126829176313597 -0.06649295981108277 1.0237844582279518
H 5.2098149543630345 0.5899029496328212 -0.3386464130077558
H 4.398546780448176 2.476063734636452 -2.6452722869487757
H 6.074878136363009 1.7641959927472852 -2.3675633215530865
H 4.47149815596785 3.584667176251526 -0.4276581751405517
H 6.146295209201166 2.897158372316216 -0.11068057791111972