13

C 0.9947787684547723 -0.15848243294391917 0.13249841668863155
C 2.2345953672779535 0.15337523880469286 -0.24632773985085513
C 2.4768690151178396 1.4676029089069493 -0.8719326137464308
O 3.551223341093157 1.8359995616432438 -1.2697825469099913
C 3.3944385186796913 -0.7586067029550434 -0.0963557432273917
C 3.9213894456396363 -1.1098110338133491 1.2189882809241361
O 3.1342076763188054 -2.021391791631885 0.4726440435691639
H 0.18554968837977823 0.5488503703850165 0.006592308599861059
H 0.7701175565489137 -1.1174130171870549 0.5820991358413479
H 1.5839374333563954 2.1089361733032903 -0.9580716317827742
H 4.091927644378108 -0.7579972913479587 -0.9318188471880531
H 3.4411012090078428 -0.7040414040941656 2.1013793903641456
H 4.972309968548971 -1.36955670998643 1.3171097896091268