13

C 1.4763172950483723 0.7711774656461599 0.4531499592944499
C 2.7259990247445756 0.3969130654521157 0.20162984151436913
C 3.0147575437689613 -0.6920745169134612 -0.7674825227289044
O 2.154541444846007 -1.278432994286049 -1.379508530082805
C 4.484982297864335 -1.088886943923354 -0.9431788770661388
C 5.40123779343845 0.03381737062302682 -1.0641546014619228
C 6.146013044544643 0.9610067184950849 -1.1690016522520184
H 1.2509001111214724 1.5575510459355302 1.171435240862677
H 0.65264312989174 0.29744493473287137 -0.06484995447501408
H 3.5690119410377115 0.8658758461884318 0.7000764802138555
H 4.536328416582306 -1.7358847620012425 -1.8176046355522573
H 4.75249633785069 -1.692853531809376 -0.06811881231129864
H 6.809623171166616 1.7924888351624002 -1.2794036839738294