17

C 1.082388581880445 -0.4307988365051124 -0.5535123196144937
C 2.270228356891381 -0.13618552043963789 -0.0379371326828926
C 2.972176300155855 -0.9640928215344605 0.9879982969984167
O 4.288248520822385 -1.208405029334307 0.5602395958330724
C 5.036242260044383 -1.8951863077145052 1.5184369819404024
C 6.434829132912566 -2.1289557764556735 1.0408928815140008
C 6.91710586404381 -1.755686336419788 -0.13671528402167604
H 0.5960457361934167 0.21355908777964147 -1.269426379151672
H 0.5573264069108474 -1.3442742629743722 -0.2640921470491067
H 2.7821272683677574 0.7715855028754024 -0.34611390129621017
H 2.424956115873424 -1.9034441362748995 1.1457626322269063
H 2.9864637024097553 -0.42539570416773564 1.9495766343273218
H 4.565022951272555 -2.8596908735052717 1.7577851738789374
H 5.06524129040868 -1.3204838424845826 2.4587167415971765
H 7.071399297753696 -2.655306161202474 1.7511411091211513
H 6.29707232401986 -1.2320937428359708 -0.8517278934796613
H 7.9409923069051365 -1.9688738037057092 -0.40966247052585325