13

C 1.1100659237632766 0.13359600631474083 0.15578635593975063
C 2.3078571945185917 0.10022720418519891 0.07759861435330397
C 3.7575477562723236 0.03560863971152364 0.018098309963398444
O 4.2306784205529535 0.867234239789969 -1.0266214088840866
C 5.632514275851001 0.8777822037002451 -1.1008813164563107
C 6.218891995542198 -0.40257144460328775 -1.4870374261969463
C 6.704166420806915 -1.4569745485906918 -1.7949871823899586
H 0.042703642436315525 0.16010459792755508 0.206321755031837
H 4.072425012606113 -1.0069809039845738 -0.15530186226477904
H 4.173103436856146 0.35215202520254657 0.9799783593410674
H 6.0670158572820325 1.2130646961026046 -0.14719722694595253
H 5.880509297225422 1.6377572528692148 -1.8551473199131725
H 7.128444345399234 -2.3825398507910576 -2.0801462933532604