17

C 0.4603258039022602 0.7012454313785019 -1.6302256914215614
C 1.737435212514787 -0.04280235016706413 -1.459853530424315
C 2.764495755100599 0.07210154559468085 -2.293078286963767
O 3.913466611109513 -0.6287360620367873 -2.11648426515064
C 4.906902902736435 -0.44377356115985117 -3.0257419628725417
C 6.071590682775026 -1.0789354487952387 -2.936074351791145
C 7.184580366109982 -0.9062299581210486 -3.9137024839577697
H 0.2550132257231946 1.3356836559340346 -0.7595323974900475
H -0.3873765982674243 0.02284746923989885 -1.7321895466630635
H 0.4849380113936528 1.348141119463826 -2.5088589057945163
H 1.8365419537037861 -0.719274439405212 -0.6164791813874992
H 2.744553169423894 0.7256589718140128 -3.166733458107129
H 4.687594830575329 0.26297992715272356 -3.824771048961268
H 6.215028901939471 -1.7723225536510832 -2.106962173186823
H 6.910054397684557 -0.19152989155707847 -4.698327070800902
H 7.441325138816422 -1.8532195365551611 -4.3956785679734205
H 8.084916929690552 -0.5411141250009944 -3.4202887444213315