19

C 5.561138319265811 -0.9767361598743817 -4.0534661822869875
C 5.755097901621002 0.2193606023760969 -3.186818955218681
C 5.171439931212814 0.3366415978468623 -1.9942035422460238
O 5.223925958167272 1.3512044448850205 -1.1091544237104445
C 5.9961136955175975 2.5075182371014115 -1.4280337953932807
C 5.442916680563064 3.6293763693026087 -0.585469967317441
C 7.462847697521022 2.2495738159784633 -1.1533774356922268
H 5.11716752051247 -0.7136812607966652 -5.02406062978557
H 4.906451788567224 -1.7137831728029298 -3.57583743462431
H 6.51696121559869 -1.4732378359912242 -4.278957750950972
H 6.387026364718461 1.0075409425091184 -3.5792814582407018
H 4.54932847306214 -0.45926645578053876 -1.608180856825288
H 5.844473684950452 2.734929535076643 -2.487580473285814
H 5.53006301401369 3.39404855544089 0.47261842770613777
H 4.386784054052903 3.7987778414931586 -0.8157618491688144
H 5.987054354691703 4.56124311844339 -0.7884570265533887
H 7.622614173011209 2.068850876821798 -0.08389866215553006
H 8.058344983124043 3.126591178096491 -1.4365595987911886
H 7.83318894151141 1.392938750245814 -1.7140754358392785