15

C 0.0800109575638276 0.03715207309346052 0.3740076374478502
C 1.5124592555468788 -0.09099388046829132 -0.027078276373927655
C 2.4832431448490575 -0.3217883477901385 0.8611510700579207
O 3.8040613143849575 -0.46692797991454055 0.6428366272402531
C 4.221701694055116 -0.3548482271269468 -0.6990028536232161
C 5.668457068293857 -0.5324941765715692 -0.7826600981019555
C 6.8515924080190445 -0.6648542242098013 -0.883094943221099
H -0.32198833468959676 1.018103951945755 0.08844199596648464
H -0.04188809534293617 -0.07270081242863961 1.4446983080861597
H -0.5384697342013914 -0.7136100002431285 -0.11799038248561287
H 1.743928291881636 0.003505654879573831 -1.080710379977298
H 2.2691690703950522 -0.42397874178898287 1.9155037826476136
H 3.949416101218049 0.622374511077519 -1.1058398254738988
H 3.7297262310978962 -1.1177675033483225 -1.314735169380801
H 7.909028937619889 -0.7900135560961983 -0.9591076004026511