17

C 1.501617118845822 0.8464744617108834 0.7358776308031255
C 2.898833724235735 0.7141345661645361 0.2396082004720372
C 3.631278819349123 1.7147329180741677 -0.25472456204429955
O 3.3253840491727105 -0.5699838221148856 0.37248417112910565
C 4.621544059869016 -0.8699052725470428 -0.05183298563257839
C 4.921197261871393 -2.3222810459933543 0.15363790719627157
C 4.089974120028365 -3.217029840410497 0.6681337275590555
H 1.1548502446368527 1.8777713586767553 0.6481799851748308
H 1.4454125134954405 0.5435602364317331 1.787247208887095
H 0.8362732826078637 0.18962423877672438 0.17728355447507935
H 3.187604233945054 2.704187486725427 -0.30850829751080683
H 4.643063448730638 1.6062546769061465 -0.6109807322945442
H 5.354929418381887 -0.26008514202154276 0.5015023472367646
H 4.743452347742495 -0.619740079711955 -1.1161030011228414
H 5.92071355744911 -2.6175962949301366 -0.1542332303545147
H 3.0872659015184327 -2.9409857096363896 0.9789587286320066
H 4.387074261957044 -4.244955986579849 0.778370066207137