15

C 0.8716970010228831 -0.154398023120901 -0.012427318208029217
C 2.3659046313203422 -0.10898129550331044 -0.07708948802075107
C 2.9592339188685206 0.8189779486625239 -1.1052288144085802
O 2.5714323983155096 2.1623624014631813 -0.8977117792913326
C 3.1302515194542906 -0.8408160816624813 0.740647052964135
C 4.546156303822179 -0.8479431883985721 0.7559016469008635
C 5.751809823851914 -0.8940323690240578 0.8021671820876461
H 0.47043111324696796 0.8564115212457081 0.10223068959824408
H 0.5264021787262126 -0.7722626200470791 0.8031309324159962
H 0.4633699530766829 -0.5478432792578779 -0.9465952345845828
H 2.579326787778554 0.5566451511671381 -2.0974448614576953
H 4.043675534285439 0.7063299788203165 -1.1232147189680493
H 2.965342825125326 2.450529586463115 -0.0700179273606833
H 2.6475123671554974 -1.4943457571467622 1.4644204720111025
H 6.813283321010409 -0.9337163647423593 0.8425585841385176