19

C 1.2687011318376484 0.07352385354277174 -0.25320010085105227
C 2.4997882639535196 -0.5250124322323125 0.4175751376356812
C 2.793602791616452 0.18367024219682562 1.7426943200051226
O 3.99726464035488 -0.2232268147723176 2.3319948083156907
C 2.4027199831499084 -2.0137848379754337 0.6481430987347905
C 1.1304959614074612 -2.550206480677332 1.234373875984476
C 3.4415069070599213 -2.8145513371039934 0.3815292538516384
H 1.433849626221586 1.1272705330988644 -0.47012721541393887
H 0.3895332681143711 0.004441736243294349 0.3990773857316692
H 1.035510870953054 -0.4365031400556881 -1.186157707839809
H 3.370975781731019 -0.35415668619801605 -0.2282611663165817
H 1.941060070622868 0.04208746574204989 2.4227359403138515
H 2.888852387834928 1.2570126463032567 1.5560672161824531
H 4.0291540875052405 -1.1915468454587932 2.270452177250303
H 0.3045084027716546 -2.44877941148362 0.531847297688318
H 0.8542671616364439 -2.0099077752485024 2.1378630881652323
H 1.2331346409321364 -3.6096929357644494 1.4899307796377883
H 4.343670225002658 -2.4228535884959794 -0.06519882931021995
H 3.395500270329382 -3.8770048495768585 0.5815017783304156