17

C 0.9562773796246914 -0.3591193007152765 -0.26630832651595865
C 2.3760090916014978 0.06427735525034797 0.06439564851538228
C 2.4602655472408568 1.5641115985626735 0.31862846812594187
O 2.088035898978178 2.3406122224294235 -0.8070188284439846
C 2.911826993686973 -0.7187689987395971 1.2680302610489174
C 4.326279182487106 -0.5105899724398836 1.5257653061111982
C 5.501978331053969 -0.35024671056321377 1.7198676552099823
H 0.5495991373532195 0.24382410157284595 -1.0824348398756047
H 0.2957938907904644 -0.2236135566204616 0.6069407409977535
H 0.9027261233187086 -1.4125330377825223 -0.5524529822722564
H 3.0236158139024494 -0.16551484919295936 -0.7930224202755685
H 3.4704784054537017 1.8238279433742925 0.6535151354057875
H 1.7659175999619356 1.8379855965809255 1.1163878192162895
H 2.760669234395087 2.2404450160568947 -1.4806702562183518
H 2.734265772842548 -1.7887091458666693 1.1150194389874197
H 2.3417649684112147 -0.4412873158408198 2.16071788511629
H 6.541984828766411 -0.20178871634452297 1.9044276410980103