15

C 2.5637182887646435 -1.3196232372327228 -0.7435016532563741
C 2.310517799495721 0.0002296215582534399 -0.024036438564666432
C 2.788035658855936 1.1911114213064269 -0.8247925678601138
O 2.033648960077479 2.0492145954440395 -1.223878559643556
C 4.210268380138512 1.2555218735177534 -1.084074068276639
C 5.398418054908027 1.2950140252350995 -1.2962535393948096
C 6.816898876061931 1.3805069562025858 -1.5693793908098386
H 2.2224262080061132 -2.158014325605055 -0.1343757978510231
H 3.627536295094354 -1.4661821203515901 -0.956829839485371
H 2.0290432459437215 -1.3567469436419677 -1.6905155866565142
H 2.850781896392412 0.003309487836506397 0.9272919873236525
H 1.2523472276408987 0.1481342845660006 0.16879702604143418
H 7.364134402636758 0.5625541723216859 -1.088715604252099
H 7.218747258748847 2.3202560139436486 -1.1922161913247638
H 7.007190911544145 1.3322776131649146 -2.6444718209207303