17

C 1.179020381617969 0.3444601413904493 -0.1261338844616903
C 2.614820733350291 0.08357393648737306 0.2908543319918928
C 3.1570698401202937 -1.253901406178668 -0.1602664169638809
O 2.4724824198056385 -2.0683902624826778 -0.7227913098203089
C 4.635238829257467 -1.5023169239894067 0.09028245546272644
C 5.413089916629473 -1.1989208345892948 -1.1455297837651197
C 6.357930703724427 -0.2693559676231885 -1.2408881661124793
H 0.8329557771516249 1.2996096743005783 0.23986534544726423
H 0.51668784090563 -0.43476044115847184 0.24711773932121828
H 1.0920295200655046 0.3408978300559051 -1.2213137707790966
H 2.7219900010473643 0.11468478323021705 1.3786491477821992
H 3.2922883060709833 0.8576415279942884 -0.07634100919250096
H 4.738744891640866 -2.556676892219372 0.3562408686481927
H 4.993493887129013 -0.8894456305499531 0.9202486041785227
H 5.145043230594341 -1.7901596143538605 -2.01504750874326
H 6.645224617798075 0.3368104183204371 -0.393739016996233
H 6.87967346654659 -0.08790509261227769 -2.1701724894093637