15

C 1.2434672815713181 0.2932805939845439 0.4291420660048948
C 2.6737079692396697 0.249278761715404 -0.07081932891745653
C 2.916745043466631 -0.813759318078866 -1.103589583197792
O 2.042340521840049 -1.5124197953081058 -1.5445272816855857
C 4.350754545716865 -1.0439097253105514 -1.5823951328844075
C 5.27274470167548 0.07660184461904186 -1.4448769886518837
C 6.020618255188725 1.0042380839934142 -1.3463348275382874
H 1.117100794408289 1.0916557799329896 1.1637715977163323
H 0.959335023538633 -0.656051896376974 0.8907662509989558
H 0.5453924082424657 0.4822252022395788 -0.39227058647091034
H 3.3892165629655095 0.08760402608917425 0.7452688570155532
H 2.977519264379177 1.2047069895182108 -0.5119182168839864
H 4.297224646846642 -1.3814120464284003 -2.618942611062607
H 4.728975363277144 -1.895656536014939 -0.9922560939451108
H 6.6935013038649736 1.8265881874656347 -1.2568003681878208