21

C 0.8479181690706639 -0.013268935691765639 -0.14540720788300357
C 2.3305005626196547 0.006441153720893104 0.16293647727123675
C 3.0707787508784103 1.127014429928622 -0.5565905698872714
O 2.5885141926572266 2.400683549674576 -0.1718802096114456
C 4.596625857889347 1.0265698218929706 -0.4315960508060874
C 5.2719646311926 2.029920876632588 -1.362571909206131
C 5.096875444289858 1.218195805824865 0.9919260280784988
H 0.33225518521054587 -0.7958229101235252 0.4237543918833662
H 0.6689887793739855 -0.20252739677447487 -1.2079010412773543
H 0.3769833790644993 0.9389455320979634 0.09185631602914644
H 2.7822235977831538 -0.9522997738695435 -0.09969971971656383
H 2.4809084575631695 0.1295089094476787 1.2447456152548468
H 2.8311501928034506 1.0542975551218834 -1.6271476971791454
H 2.696248713149137 2.484682307730767 0.7801268920803532
H 4.872420884314334 0.022804951860133597 -0.7533974568184393
H 4.985957522979685 3.0446047034661787 -1.1075080039090706
H 4.984391999553632 1.8577519091745092 -2.4075211865497237
H 6.361792237939864 1.9482487276722937 -1.3016220590762064
H 4.857417089634086 2.2211749496608 1.3671573803368537
H 6.176973862857883 1.1030660166397672 1.0452746933159347
H 4.663663646469541 0.4871797759556994 1.6857624140251386