19

C 1.0494192704240448 0.23281523919904287 -0.01194133304677598
C 2.4879235883369555 -0.09450357176800742 -0.3542597197633829
C 3.280552096109921 -0.56940948013127 0.8616672241866252
O 2.6967329818911874 -1.730536722015384 1.4323481024631057
C 4.754794938857595 -0.8133836420910637 0.6352158678212052
C 5.547021459633381 -1.0733340920582648 1.8779568610928026
C 5.319025229030889 -0.8257555985973142 -0.5799738815049562
H 0.4903415308908661 0.5300744866164591 -0.904713447670566
H 0.9988076529696133 1.0572781394854835 0.7043142448816015
H 0.5462418827381119 -0.6239722561097342 0.4369465972745192
H 2.9871608896540414 0.7775064249095501 -0.7742726063775951
H 2.516219134696012 -0.875710577034438 -1.1228935494209398
H 3.1862060487203356 0.18941877892740794 1.6418774934033873
H 2.83042051003416 -2.4592304859300147 0.8192920212262225
H 5.551268281267261 -0.17711203210314916 2.5154883874061342
H 6.5833631210185715 -1.3277604839720967 1.6514079990128454
H 5.097508124467453 -1.872751896920982 2.4624920839349365
H 4.748924842968652 -0.6278113363663673 -1.4818694615033294
H 6.380053365187899 -1.0263749970744838 -0.7024186090275277