19

C 1.1494138526253292 0.1348142117726511 0.5695887415692
C 2.5668252812041734 0.5483337912786641 0.239907841674628
C 3.101457363291677 -0.130770291668102 -1.0128044729675194
O 2.320791068549413 0.1665407711727767 -2.1544464743087026
C 4.584888936659626 0.16841115678444935 -1.2849339135404119
C 4.834632502447275 1.6140246308545312 -1.5778963588319597
C 5.03865794267892 2.1106713695730246 -2.7897484610890877
H 0.7690705794706401 0.6634733340812632 1.4421255480484265
H 1.1007235742878487 -0.9381053354426384 0.7824318872585481
H 0.4763004027212759 0.3321811570738093 -0.2725575882410934
H 3.2303020792362687 0.3292226054802939 1.0802881347170752
H 2.611784333801669 1.64115688741692 0.086993734464927
H 3.0068764394189667 -1.2196916800934734 -0.8870639735834392
H 2.5739531692635484 1.0522326784567129 -2.45212228548876
H 4.9050004346447915 -0.43956845429005154 -2.137259147341019
H 5.174660873068484 -0.1529719283167614 -0.41666121451250127
H 4.822891553586717 2.294872019254435 -0.7223105092027228
H 5.078561688189406 1.4638985346438789 -3.6648291097631707
H 5.189476115575508 3.174290424598551 -2.9444127907773483