17

C 1.0051862160271425 0.1371405542553001 0.23589754605756405
C 2.5124859121756105 0.1134718724131475 0.08469992737678123
C 2.9575277290523596 -0.5239034652609489 -1.2334663267557966
O 2.4356778884775157 0.1523529019103244 -2.351270703970577
C 4.492080978856908 -0.6342206400467244 -1.3336668199322592
C 5.126650090733404 0.6652146488298931 -1.4182968581504478
C 5.61536098371528 1.7670104719826747 -1.5117333974244855
H 0.715813123691519 0.6291137654546827 1.168778492163279
H 0.5934095445517525 -0.8794014187980581 0.2555362581548528
H 0.5403823524451924 0.6722740000819882 -0.5852361731295529
H 2.9642451537910413 -0.44944452203327623 0.9086819761996239
H 2.9179623609178638 1.1308385113615307 0.13336408233945257
H 2.5574189512599075 -1.5382414159141902 -1.2913232514286894
H 2.8750527124100804 1.0136872307126026 -2.40310670775995
H 4.7346877120821835 -1.210451500494378 -2.2333699731835734
H 4.884353921386812 -1.1802913917750175 -0.47575516881913293
H 6.065556886694908 2.7261517988299127 -1.5941309672019712