17

C 2.895123622394667 -1.9766645403772198 1.2487159050732455
C 2.4577636435669468 -0.7946382778365975 0.40294292142873017
C 2.9143725145991497 -0.8954709991562718 -1.0456862614327391
O 2.3353594619026605 0.1817558641968412 -1.748742290576607
C 2.522955937393392 0.12105550025419744 -3.1445033608034185
C 4.3775847994570505 -0.8971073813312688 -1.1612802440106536
C 5.576808962592084 -0.898428209435823 -1.249291949900281
H 2.5258031008513595 -1.8678516218684624 2.271945731270474
H 3.985299576011803 -2.0487607459543353 1.2875807528977794
H 2.510159343231844 -2.915970342452982 0.8594031629596984
H 2.8381200031591285 0.14386503572714832 0.8124045570726955
H 1.3658636108090467 -0.7207710539944844 0.378291477689611
H 2.549977154659913 -1.8437007065313489 -1.478277184785064
H 2.005831468379061 0.9800607342040089 -3.569604450272258
H 2.103514945391994 -0.7995305413595954 -3.5588333731480692
H 3.5859130698656334 0.17514454252484915 -3.406622484618287
H 6.63868404787385 -0.8902864547161425 -1.3206348477579448