19

C 0.8044235639134619 -0.3259873295653634 0.13560436978242296
C 2.283923046208179 -0.024289999243610815 -0.10477827654276153
C 2.9200324465052576 0.6393325752398886 1.087337276495891
O 4.278407964936705 0.8823749378680062 0.806413588913388
C 5.009317065544036 1.481062462084963 1.7617547140487304
C 4.628010040700458 1.8907702334199492 2.9704580352111307
C 5.554379491455059 2.540756558544316 3.9325238081520486
H 0.3567292541127393 -0.8117347972757093 -0.7360126287799003
H 0.24363206799065532 0.5920070460101545 0.32919634578300344
H 0.664882433552597 -0.9931582327752555 0.9849178829994757
H 2.4000291231237267 0.61707996842625 -0.9749977777898308
H 2.827576967516617 -0.9490067870345245 -0.316274880350215
H 2.8382842448721277 0.00643554340982401 1.979227787006666
H 2.4071305214364727 1.5951499587380757 1.3214523440803567
H 6.02968178798832 1.6123687518774423 1.4213932155966664
H 3.5944156188355136 1.7444715854978003 3.297193872797317
H 6.565296431650543 2.6364284939753437 3.5153642193790104
H 5.644452588108925 1.96564539966222 4.869543404519784
H 5.216771904902026 3.547176177836696 4.211775770520704