17

C 0.8290944117494989 0.0035116237411066346 0.09538151277694809
C 2.350619562080185 0.03488707203257051 0.04900272774299719
C 2.878893556866452 1.3953207321030028 -0.3327245980197043
O 4.28844599057391 1.35877790202448 -0.3500726232431013
C 4.836398510600138 2.5948380418604136 -0.6993768024640801
C 6.295152824802976 2.52311728099145 -0.7052345481898561
C 7.489607379600951 2.4852790516397576 -0.7170232619588202
H 0.46233064666243573 -0.9920309509647798 0.37158675453331835
H 0.4022845542713255 0.2503605316280952 -0.8769952271809207
H 0.4363182292022357 0.7156458042020771 0.827784128859573
H 2.728540288062016 -0.6969375565371138 -0.6620029489894044
H 2.7663833839317187 -0.2360615118345366 1.029613375244985
H 2.534101303772377 2.1535360559201933 0.3863938683002098
H 2.492726846878268 1.6913027094704385 -1.317720936497571
H 4.52099773006678 3.3775801303827597 0.017347091625943705
H 4.492218437958863 2.912721900769836 -1.695353504203316
H 8.553665894083675 2.445051507811605 -0.7342805721036002