19

C -0.3123435055977981 1.0362165121828357 1.1131843006579467
C 0.810845053811976 0.762802866349235 0.11037732699757997
C 1.9488438226045668 0.002124474078986514 0.7319471887538431
O 2.9377401483762484 -0.2274846127253785 -0.23093978354693578
C 4.05640826208923 -0.9233394999118406 0.259592897153633
C 5.081747024538435 -1.0013591818371652 -0.8423599721473399
O 5.496575498157573 0.2734266084253368 -1.2605626484532177
H -1.1296800047147004 1.5839342575510083 0.643452739965347
H 0.048874824651622295 1.6309628875367401 1.9557986284024176
H -0.7213588437325154 0.10270776253200986 1.5099220292614186
H 1.1934836325062599 1.7089680709267387 -0.2963525837213321
H 0.428564280494109 0.19166648261230235 -0.7357843885518718
H 1.5966847582152772 -0.9597156261289018 1.1507774869858853
H 2.3736527836795274 0.57650583351402 1.582210710776425
H 3.7748878570809015 -1.939664921509303 0.5930525936126256
H 4.480427509643048 -0.3949497855868494 1.1232372825864303
H 4.65600122729687 -1.570242479929381 -1.6864884178109834
H 5.964662984236656 -1.5291645173245239 -0.49051688115458564
H 4.693392909223385 0.7836515104250897 -1.4244198523551326