17

C 0.6669273808217587 -1.5897921746867942 3.822446482257767
C 2.1039892610063315 -1.6139498582609855 3.4079007255970075
C 2.6096786785700385 -0.7659680367960255 2.519554346407861
O 3.8814303747035526 -0.6972464017334141 2.0581066538589234
C 4.824503869853801 -1.5993919564708596 2.604994941553052
C 6.1508060972229766 -1.2662289913512943 1.9884277304399736
O 6.59511482584153 0.029620168302744946 2.321624267634301
H 0.17509095781329956 -2.543683850141993 3.6146532878360076
H 0.12312417900722863 -0.7996466538365451 3.2986939400573823
H 0.5613253966446368 -1.4046172953888034 4.8968771860124995
H 2.73554616429609 -2.367520573648283 3.8774921046162807
H 1.9909010705527221 -0.012247905320618617 2.038558615256651
H 4.53186458410235 -2.634799378404633 2.373733495417149
H 4.859278900974327 -1.4778695092250476 3.692131640024088
H 6.088578943682585 -1.4012217871529327 0.8969050083339196
H 6.904800243724067 -1.9689153228126406 2.364792135750569
H 5.892519503723077 0.6301868948193828 2.0685325908754595