15

C -0.005321209626778486 0.1853033587593122 -0.001665905090689698
C 1.4374700620321983 -0.14090944719776305 0.16339049777051368
C 2.2728375456256793 -0.2581150223173506 -0.8564003405716675
O 3.601841742861429 -0.5630626617311265 -0.634703432193989
C 4.414530819678983 -0.6765481999225585 -1.706405622612581
C 5.802690593147951 -0.998470112936591 -1.2637972730981475
O 4.051035689832911 -0.5215235485423786 -2.842696720245301
H -0.639615409999479 -0.6108367239320269 0.41886947730421525
H -0.27222985308155245 0.3089153485615829 -1.050153612984833
H -0.2674144548003464 1.106687783335107 0.5305456825693337
H 1.8202976959627095 -0.28326415098822266 1.1701699108438115
H 2.0073736747193474 -0.13539076802049355 -1.8951274839780057
H 6.179329780879785 -0.22023054359777158 -0.6005197170009201
H 6.449727329447883 -1.0886851970836375 -2.139882069806762
H 5.807106175461411 -1.9340895236629874 -0.7037440801220444