15

C -0.07263688273308545 0.3508626564271738 0.09708759899384455
C 1.2817465757652184 -0.2713629100535149 0.14288650941608233
C 2.376453893285328 0.4110148478145865 0.4441328296023398
O 3.654721160543328 -0.03289874810124617 0.5166882943935853
C 3.8637770679616157 -1.3984195665579102 0.24149865354174238
C 5.330680850016147 -1.6773456388505543 0.3727067033506312
O 5.806137178835797 -2.7686449683927727 0.18981366409733083
H -0.5209521178810247 0.2572577797220265 -0.8930973417468435
H -0.020158454048366643 1.419404170643391 0.3504535194042953
H -0.7523627978481394 -0.12560641629454325 0.8095791927176379
H 1.3404463166938607 -1.3288240895565848 -0.09033421746530433
H 2.3480094538302625 1.4723112618568748 0.6849502321983705
H 3.541944637772479 -1.648123064881836 -0.7863534189754973
H 3.3050677115650786 -2.044004247364868 0.9361699950679417
H 5.9535682213869245 -0.8015173400476199 0.655061505123377