15

C 0.40174508712483686 0.3164319389481417 0.27747332145649034
C 1.7024753435249578 0.49558353188581095 0.9726696508645336
C 1.841074268441254 0.9877759209474584 2.202177648973505
O 2.723524588750397 0.07831449487775072 0.18285672461618646
C 4.026810197600265 0.17460344353015747 0.6887618556178258
C 4.977956096922865 -0.3283446203500152 -0.3503447650385475
O 6.1665001074064465 -0.3634644893112311 -0.1870699627265276
H -0.4289630500045011 0.6426457215023547 0.9007688346296401
H 0.2539597897114908 -0.7293282515871001 0.008081713974694914
H 0.3967505736148242 0.8878768003100123 -0.652915294004789
H 0.9576221985598412 1.2803286093421269 2.7580656903417
H 2.802001368589916 1.0979374268914506 2.69990386129998
H 4.143578794138862 -0.41660298092112685 1.6087743791715874
H 4.283604191573852 1.2203595859661556 0.9418549012681063
H 4.497167915369737 -0.681224352721889 -1.2899567205496774