13

C 1.0084212264143277 0.08238863202409093 -0.10916029855093098
C 2.4927281313619343 0.12751744993207892 0.08524787179720067
C 2.9644023902971157 0.9595537519356365 1.2273664235389241
O 2.181773103992879 1.5558048895867644 1.9262616628949227
C 3.3316377866955023 -0.5484080780408955 -0.7215579775654863
C 4.804914753992339 -0.6160064484367587 -0.662459430583253
O 5.53729541172251 -0.06454222155588626 0.11847281478560988
H 0.6236138605954079 1.0947894446890771 -0.2606767641105358
H 0.5274983380499301 -0.2912387678093388 0.7906023573656044
H 0.7371911189459786 -0.5462294002105663 -0.9615345947266205
H 4.047057966538235 1.0079118185098717 1.3882775156535774
H 2.9013611015635656 -1.1314058373510336 -1.5242973985628896
H 5.2369742232298 -1.2564120897634283 -1.460914233195266