15

C 0.6844057231924047 0.4958427285676273 -0.015609365958465127
C 2.1061142233984844 -0.04322364864089546 0.0576011805580841
C 2.785420132602079 0.39102963809460817 1.344295147401569
O 3.9675868759458224 0.531437305324903 1.4706645857930756
C 2.1352333149118237 -1.5769338136624473 0.03315290097986719
C 3.4406747548423864 -2.19914594674593 -0.372335634435009
O 1.1716255200984824 -2.2238103852467717 0.34505923554361495
H 0.6817994294929068 1.5849895911371659 0.035629938199983266
H 0.08616689325599826 0.09629235154530018 0.7970385885481405
H 0.2095801225479671 0.18932375459539647 -0.9487425407375821
H 2.732480295365693 0.3125767805323698 -0.7614376339078076
H 2.0998846196768812 0.5539408130223845 2.1910378885036907
H 4.282141947824586 -1.685491686991939 0.10498085335590994
H 3.5678176323642323 -2.0728402563464585 -1.4518538551622477
H 3.4466060514559955 -3.2636936258348563 -0.13510322161604443