19

C 0.899413213295545 -0.062270138033798064 -0.08112653418068404
C 2.415501000667454 0.04142457939683617 0.06134726036655763
C 2.8302564403883186 1.2731952544688223 0.8313637058555681
O 2.9602473216586684 -1.0734730523343423 0.7448653430459777
C 3.022344121073882 -2.2592516190544156 -0.00853675667052486
C 3.643495700569761 -3.310026868507288 0.8842905124500808
O 2.8663207500866537 -3.546776506443523 2.0324954065097462
H 0.5052022311916605 0.8184093727046197 -0.5988651316431237
H 0.4372706405206064 -0.10459555956565063 0.9045307575855672
H 0.5973767869139159 -0.9434296589061982 -0.6436817768536308
H 2.8626136583048045 0.08254989535376224 -0.94334259949185
H 2.4120022919112034 1.240261994078221 1.8402163478203728
H 2.4641063396159013 2.1819992836517503 0.3405163455253738
H 3.9138528635073606 1.330317036496238 0.9077695945067678
H 3.6418728329927355 -2.122380477196549 -0.9120351855758794
H 2.028867069662697 -2.59730029464628 -0.3134269525069798
H 4.667220763095319 -2.9983689087054786 1.1603392045786265
H 3.7241863559818955 -4.254832150246637 0.3443866929654901
H 2.6888949091383862 -2.6879897573422635 2.4246572869656235