17

C 0.6978403394106452 0.5917418150299844 -0.14364145022419686
C 2.189762156621386 0.3536313068663342 -0.1834861940129336
C 2.99972869563205 1.6153581656296678 -0.0534334221654205
O 2.5746300112455285 -0.4957624806250623 0.9199389255470972
C 2.4510130184338137 -1.8225070905087364 0.7469304926762658
C 2.8799883995414244 -2.558089000991573 1.9835752719436517
O 2.04880362231498 -2.335719927350778 -0.2539168442740609
H 0.4008015982087976 1.2452893453996925 -0.9741757132669999
H 0.4134172357423565 1.0820633235160004 0.7953846247418581
H 0.14526658421433433 -0.343142263782429 -0.24004645890103263
H 2.450621652173391 -0.1725304081058267 -1.1035825140762316
H 2.7724386431739503 2.127400296325417 0.8908129813024654
H 2.7688492424657687 2.294177938223974 -0.8756934604427841
H 4.065336977425983 1.3993540439841803 -0.07630755435564769
H 3.9148319768488262 -2.305832816006862 2.225832870293516
H 2.7830510122886225 -3.6292389622295333 1.8177225474656682
H 2.2626283984437814 -2.2563186770890757 2.8356738499008256