17

C 1.0372512665288238 0.006119831037216555 -0.04789985691613144
C 2.5306939938853374 -0.08009092097777706 -0.13575308656247062
C 3.0787810731940017 0.020298540098854314 -1.531879124166165
O 2.7245566693679355 -1.0939034078685101 -2.3271993924073144
C 3.2846749673716196 -0.2627189922938375 0.9488609986506509
C 4.768895985248145 -0.3679993029857753 1.0439855431960496
O 5.318154252052908 0.6404293987173014 1.8631298999139243
H 0.6912452248391335 0.9986515619357954 -0.3772011636021828
H 0.6777691158222484 -0.158035016430218 0.9713879037337408
H 0.5688506899928223 -0.7284414920256808 -0.7044096131841124
H 4.159633327006865 0.17011912934170492 -1.5339349702731833
H 2.6279171938248265 0.8820519866272246 -2.037645469932841
H 3.0609790687051763 -1.88613837211023 -1.8880423977661456
H 2.778341604803566 -0.3279630704793052 1.9130823282717009
H 5.243900379837234 -0.3766035780751169 0.05001825189109739
H 5.04533959905688 -1.315873015768671 1.534285313119368
H 5.003309784499365 1.4943651560625817 1.5299269652955692