15

C 1.1860544355780838 -0.12191094169570779 -0.030366007180542623
C 2.6654446726102328 0.08652346218003526 0.06924043869946116
C 3.4932856692949326 -0.8433244761065589 -0.7756895170761876
O 3.0164382250096184 -2.1592448133902424 -0.5998966523660951
C 3.17540628152001 1.06417748537931 0.8349101286943181
C 4.594943397540964 1.3528991670315997 1.0512090662990126
O 4.979217823763052 2.2797688384114467 1.7096071527482202
H 0.8659721515876303 -0.06779219745609674 -1.0790665898987295
H 0.6416375457822149 0.6262910420330918 0.5504088621184955
H 0.925219031964137 -1.1169471276186584 0.3255485181556456
H 4.554752596433162 -0.7667611505522812 -0.5431700771850976
H 3.3650688104648903 -0.5230267488570872 -1.8256562174732756
H 3.4677013214300576 -2.729399794624844 -1.2287920627139188
H 2.509914734651576 1.7334286362781695 1.363453506672463
H 5.331340158891467 0.6649219713171337 0.5867311209860891