15

C 1.3031298064481032 -0.1206551128331697 -0.20791507119878636
C 2.8172381519569845 -0.037637114687502 -0.12753583128496448
C 3.3073925382247356 0.5432578502129851 1.157645237954638
O 2.5962613919208333 0.9100617626581051 2.0615959270317465
C 4.843870057381077 0.6723363078486183 1.307539471291844
C 5.337257448889998 1.2467678345157962 2.5946850386547418
O 5.563235793054997 0.3062658568542154 0.4169588810326845
H 0.9913503184627201 -0.549710931153424 -1.1589589747865334
H 0.8436732819621462 0.864762964893844 -0.10168965552379003
H 0.9083715984702292 -0.746968114188085 0.6004568414415365
H 3.2352602522336724 0.5670359050317889 -0.9355310272240388
H 3.2909990718917115 -1.0127141597076166 -0.24920558611587987
H 4.972183515127798 0.6528671442194557 3.4409397069720358
H 4.909580740236844 2.251600475417131 2.746094986594913
H 6.422552711124018 1.285769392384169 2.5898517332440973