17

C 2.8518396443519465 -0.9233644199075868 1.1860209887928812
C 2.693170922929863 0.061994332941661595 0.040485865538900954
C 3.1057829709291993 -0.49392361983088606 -1.3148962099582853
O 2.6977884416720426 0.409711034166976 -2.3008400207021014
C 2.797358055572136 -0.10306348512963363 -3.6049186611258275
C 4.613939558925672 -0.6527306246902279 -1.3436540034866673
O 5.207341368574734 -1.6580960506722937 -1.0664824340434265
H 2.548226717412304 -0.4667703932823261 2.124106060019095
H 3.885268425858473 -1.2615615649459682 1.2897790792513673
H 2.230201806034578 -1.8091638211716314 1.0267016699799045
H 3.2586304292739214 0.9812606155063335 0.23383206783488092
H 1.648297815837285 0.36867718627112167 -0.06051774895207952
H 2.6503505469018553 -1.481551306807095 -1.4678325893482564
H 2.4448952118987584 0.6747615825059555 -4.28863440564034
H 2.1768533237494476 -1.0035562414198766 -3.7335613761789084
H 3.828464160101745 -0.3546684195052681 -3.870915511748546
H 5.1449928924666 0.2886448158873367 -1.6283325953311587