17

C 0.4350796901074732 0.25043473884224854 -0.002297724913669445
C 1.943837371569177 0.043989942696135965 0.0018330113983351726
C 2.661746357846316 1.1166735853143064 0.7803602963310226
O 4.044672188088232 0.8652138025226749 0.7357954600401201
C 4.792885594871368 1.818949960576581 1.4259104461651944
C 6.253029317415312 1.46670296686632 1.3209688684090741
O 7.134043914320212 2.1147829243731278 1.8269766536901069
H -0.0641934343388417 -0.5331917750780981 -0.564009056172401
H 0.16271499387913546 1.2118069433527532 -0.44505014871776133
H 0.03424674971829013 0.2369785759780218 1.0139574212053153
H 2.32066883368068 0.04058877198689433 -1.0297544797233038
H 2.187201051030642 -0.9263360055089547 0.4326127773244197
H 2.3136347296190025 1.1277649359389987 1.8240026703682737
H 2.446812214823283 2.1089123511584043 0.35138221638536293
H 4.526415861877427 1.8606348304281273 2.493205363693638
H 4.6573413222256885 2.834464073582838 1.0211515860410199
H 6.462084403009396 0.5477317386793417 0.7382592191061358