19

C 0.41279866057730147 1.3848873606247702 -1.6574102264032988
C 1.1140331203218787 0.2560591851838877 -0.9172541431904883
C 2.3518190198946436 0.7321517599391738 -0.19684384223915102
O 2.962734728064998 -0.36699691514785776 0.45113694648694996
C 4.144178485204194 -0.04673729396364548 1.0987558188094817
O 3.9714644245790898 0.7525436560223091 2.224722927172229
C 3.322365418522606 0.09203803209111414 3.282137839873741
H -0.48422857420012666 1.0343294522264261 -2.167174440526327
H 1.0618299294990186 1.8493057269136832 -2.402471758534407
H 0.10092755686269131 2.179706674381652 -0.9670955697124914
H 1.4003181587257918 -0.5289711971674284 -1.6211324389537374
H 0.4323593278277422 -0.19677970173196632 -0.19604230011311818
H 2.095738008533769 1.5169774643488312 0.5369741527174289
H 3.063788921918628 1.177575983085052 -0.9165572066270355
H 4.811105570184323 0.5222587277391499 0.43802147244987194
H 4.597367238323206 -1.012166751748663 1.3748786478872732
H 3.268340650334557 0.7932329496610437 4.118350702785892
H 3.8742971463664517 -0.8012441376101365 3.596646694127691
H 2.3005044049877656 -0.20354023649971636 3.0141431423265863