19

C 1.4135914795601503 -1.537345650141812 -0.7223008251669849
C 2.44589102257228 -0.6558127815330956 -0.04248023810876487
C 2.7621345252463123 0.5995317660730872 -0.8432963851761882
O 1.6014673991952528 1.3956134707182921 -1.0469193640845709
C 3.8482773533409116 1.4414826472096554 -0.21439268744449588
O 3.3644370708380356 1.9439165130320142 1.0065021609122358
C 4.252387810128388 2.833581512324203 1.6190770889040658
H 1.1816583218381804 -2.417507009155935 -0.11298379500578913
H 1.7701870207725778 -1.8929273296554392 -1.6889003412643824
H 0.49525607156039486 -0.9899382164801608 -0.8946005479045364
H 3.3811358205154827 -1.2174642984881456 0.0966136194438633
H 2.1086001318789185 -0.3644653326860564 0.9482500846899103
H 3.1046495394679714 0.3128719932067637 -1.8500637424256852
H 1.4475594868249961 1.8498073132497583 -0.2162752498469173
H 4.098719080514941 2.2833685082457897 -0.8837736876326328
H 4.756253364922889 0.8487224813343509 -0.053877648821326854
H 3.7939738394018825 3.1716968652919824 2.550879777420746
H 4.444825259667091 3.7111654290852742 0.9843956573055365
H 5.212041845518151 2.3580018634853737 1.8555316302428728