19

C 2.3945618214075943 -1.2207591036836534 -1.8739672335919064
C 3.0220700967982563 0.10572982202841606 -1.4580662251756413
C 4.054099220522167 -0.0679423547137073 -0.3670370089468073
O 5.133295005628988 -0.7634134629671285 -0.9141537982017357
C 6.053833420655967 -1.2260784551583837 0.050375944875299256
O 4.441748974218261 1.1362864815350386 0.24276679381950741
C 4.991236311249865 2.110010595604369 -0.6254751165847563
H 1.6403774319603035 -1.071285003832663 -2.659122063124486
H 1.900097261480067 -1.710881709858189 -1.0275528288512052
H 3.1562254513796386 -1.8959087296339376 -2.267545513529493
H 2.2557634872592405 0.7842276535358873 -1.0869025564508938
H 3.498254086826225 0.5742458166040367 -2.3299495058370208
H 3.6258109003695864 -0.6443553854652778 0.47123796431445875
H 6.835716057164359 -1.7644309600903076 -0.47775576034636696
H 5.572980182248298 -1.9041451548299575 0.7705068989016483
H 6.509950658563032 -0.3982787374150999 0.6134163950683175
H 5.45326539715292 2.865437661573756 0.011411956279930963
H 4.225939175342098 2.5872396838547935 -1.2468564956168005
H 5.761237792000506 1.6792008613330986 -1.2812759540668412