19

C 1.0148686274844554 1.3752318026027375 -0.13821194723444374
C 2.5109018485645365 1.5499324888123316 -0.16905753410991928
O 3.071363955189794 0.5400791993948654 -0.981706704218385
C 4.447855559724889 0.6160187549456915 -1.0520355093084925
C 5.087810621699703 0.05652190450978264 -2.276399233773641
C 5.100946998751693 1.5425885602410983 -2.0334642651251986
C 6.3838236514911815 2.2460940887577716 -1.694387455502321
H 0.5488297396529135 2.1404821561923453 0.48753967832130857
H 0.7452300392763471 0.3922524243437766 0.26480936575195463
H 0.5933517246102082 1.4513133338198216 -1.14987376614212
H 2.9296953892579434 1.4800013169023074 0.8463701499530233
H 2.7774221821127805 2.5346163218652302 -0.5629596813716151
H 4.959296520787635 0.4558956644783993 -0.09315072845708375
H 4.414254367823357 -0.31834670365652756 -3.0304636752755507
H 6.0142367531786425 -0.4961001074310052 -2.1687394465895204
H 4.3969669706620484 2.105131061065894 -2.6408817692264024
H 7.008006446516391 1.630843428735062 -1.037071822097106
H 6.202716120617571 3.1939502227899776 -1.178703762998839
H 6.9699004414086225 2.460289077147144 -2.5874627675176733