19

C 1.2522094764674223 -0.4159055364031922 0.4457803961953992
C 2.6346914230705316 0.051455772705701286 0.02728546857409709
O 2.625947578587008 0.5539014678856924 -1.2988381433806562
C 3.2110107150083786 1.0405501755257929 1.0181181229833125
C 4.324593276721407 1.957457198778367 0.6337453539944247
C 2.959180735806918 2.510303479922468 0.9164311402654696
C 2.706764990083173 3.3383588209743733 2.145041659875829
H 0.8628471077923834 -1.1530426589194085 -0.2715704835125943
H 0.5532717522882705 0.4263269548796259 0.48342491673108046
H 1.27022087840194 -0.877117394524259 1.4310412631497225
H 3.307849427654274 -0.8108331651786557 -0.011338868249575113
H 1.90062108459922 1.177886428168124 -1.3715810849332475
H 3.252838286239203 0.6496605755257315 2.0283912755902644
H 4.644224351962269 1.9263533511728608 -0.4008810950099249
H 5.115483842219048 2.1483197300172683 1.3527092060399037
H 2.4214851078165096 2.843490111267468 0.034985735213322905
H 3.292387447316544 2.9600063074935217 2.9902079004168183
H 1.657271335681646 3.308000948060716 2.434660401273555
H 2.983166971971782 4.380094527693172 1.9956762537554187