17

C 1.63125880766411 -2.1419439651933385 -2.2203146971269083
C 2.707707235641868 -1.8065134281742512 -1.2213879061445863
O 3.93265492076685 -2.3503528314203193 -1.6769666813479283
C 4.9885713923923145 -2.0857063796845408 -0.8158701298733133
C 6.353072499982126 -2.088427873304635 -1.4004574394272213
C 5.725159833186138 -0.8060255978110916 -0.9214885286441782
O 6.1590512966885695 -0.22135877579631166 0.2600900837945154
H 0.6784561311426692 -1.740066596030542 -1.8948356992671826
H 1.5412969027242818 -3.2253107576014792 -2.335895513842579
H 1.869677613251613 -1.7129366165940154 -3.2033015074334448
H 2.462127350210453 -2.232542126122558 -0.2404802715025795
H 2.803931832004978 -0.7176521074649052 -1.101292482270843
H 4.875010231337262 -2.4884961322006256 0.18960199313828813
H 6.439467766789299 -2.234053962501477 -2.4687636844987075
H 7.149680803117131 -2.5160779582643538 -0.798292360213013
H 5.3865890069146225 -0.11376106670543881 -1.701646593263608
H 7.042503948910221 0.1407193570621492 0.12254300095227594