17

C 1.454105308668017 -2.3583123396794923 -0.397403048931796
C 2.6893312493400057 -2.068447155875756 -0.7797127762246568
O 3.3996777841731407 -1.0446907954389706 -0.24706141918344957
C 4.776719241637139 -1.01294156876555 -0.5653285408556437
C 5.508950846837497 0.2540776517230222 -0.14168408398511692
C 6.711979560483071 -0.6385161791468247 0.21009328679198244
C 5.751362097940543 -1.8323016578574007 0.29045055415698096
H 0.9310035645693852 -3.161947747503529 -0.8794925373387659
H 0.9599272001120527 -1.800289883854135 0.388122645103197
H 3.2023546707276718 -2.6257901763560905 -1.5576757364731313
H 4.916738379852362 -1.2173773760320425 -1.6336608102392882
H 5.040492771255916 0.6570466462173132 0.7688055665479567
H 5.625744959829565 1.0516531618288394 -0.87487467591485
H 7.2790406909057825 -0.3840217218215089 1.106474090899494
H 7.409959482914077 -0.7272428034804529 -0.6223970572428477
H 5.352988536771713 -1.9601822676013256 1.2967456598851654
H 6.085693942082088 -2.8036002145457353 -0.08614095040063216