19

C 1.2363470300833335 0.20312525190482272 0.8363844340734617
C 2.4297218069684456 -0.1046415410490906 -0.0449226451620205
O 2.081713332738204 -1.054769156873251 -1.0485142847752196
C 3.1199078555878677 1.0896344120201062 -0.6916735230418127
C 4.4428062365447705 0.7548013391901942 -1.3122053946259566
C 2.264740220495738 2.1139058742471675 -1.4013103461218683
C 2.961549839205224 2.470286004472239 -0.1184333425625393
H 0.7950205690315282 -0.7346777523862095 1.1723975137660647
H 0.4677059788186739 0.759385797809534 0.3020021329132529
H 1.52259073838455 0.7787305704242148 1.7225382196005583
H 3.182288841003854 -0.6265749555504467 0.5651225098394268
H 1.5533111453717232 -0.5829604855505747 -1.7067451343753983
H 4.3433624917779134 -0.06818989381957236 -2.023892528843312
H 5.168214443214971 0.44288661363629 -0.5445716770877203
H 4.872665425019036 1.6151649514475115 -1.827482599973338
H 1.185544330967725 2.0150963395251162 -1.3750632191023513
H 2.652636036873375 2.514667812753967 -2.328773316511207
H 2.342995383462077 2.6140958159835 0.7573313264758089
H 3.8249279272124204 3.1297927669273693 -0.17206974367238645