19

C 2.846247088653282 0.21081603321817344 3.943431320883103
C 4.211573108316249 0.1196834997111583 3.2934841516324305
O 4.214820733752149 -1.003992780023535 2.434810519513118
C 5.365132775363066 -1.1322027443950813 1.649908635160602
C 6.610906069061289 -1.538644852644959 2.405729131451051
C 5.106721521811221 -1.6826177989151936 0.29691128724894417
C 5.472503234678473 -0.22874425390338768 0.45991456229757377
H 2.808894011597978 1.0609944795239656 4.625341416856474
H 2.6340737443851174 -0.6973157628996961 4.503659275258279
H 2.0695299107686878 0.3342759907292159 3.1827418605664826
H 4.990441510880405 0.012993347641646977 4.066121760074939
H 4.436971389106432 1.0257457969704862 2.726023173455854
H 6.424776249445296 -2.4725796089675374 2.9428077040411584
H 6.92467414743523 -0.7794742279703388 3.1142684895553745
H 7.42942064119374 -1.7002042922153462 1.7115289858602925
H 4.077525327648 -1.908355259326756 0.05889208561314506
H 5.842007368591688 -2.36233145182907 -0.12414560904812218
H 4.689023870095891 0.4878903231740848 0.3057981371405454
H 6.4629907080590945 0.09560327766782122 0.14234225782396648