17

C 1.4132993560027698 -0.7162095083195188 0.6012438772956835
C 2.544977448084881 0.04405596873846183 -0.054523860909604885
O 2.1831878373675746 0.5062035527594716 -1.342788741847547
C 3.0428445273065052 1.1458497611808536 0.8471367665491845
O 4.097170040014151 1.9633047589186594 0.36505267285200477
C 2.836301828482771 2.570556844075019 0.5999650183102945
C 2.762960465518961 3.578388283406369 1.69632677493887
H 1.0738747808174114 -1.5306480922048875 -0.053352716691583604
H 0.5552408270672439 -0.05468068326148577 0.7978153927676674
H 1.7195754795686535 -1.1495564935650275 1.5517035647584412
H 3.388774439337077 -0.6351102562500027 -0.23258771635069794
H 1.3291263295589393 0.927466317102021 -1.2758828702907488
H 3.167474030056872 0.8360411945738032 1.8854300202017213
H 2.322955743662338 2.8453779437851803 -0.32497963002237357
H 3.2900529003372077 3.2306903402646348 2.5842239681386348
H 1.716924698827569 3.7820477041531007 1.9692344772619796
H 3.21505346906257 4.519672806554563 1.3852524530550936