15

C 2.2949382050140446 0.431399524380604 0.36813091663707015
C 2.038933986004186 1.020563462283884 -0.7902127273519364
O 2.899615381984828 1.6328034270798617 -1.6271931903527952
C 4.262905098081042 1.6287825616256995 -1.2433675950060814
C 5.0354447059468255 2.316600750832852 -2.318737593464499
C 5.380673433235832 3.732743161109477 -2.2296196906462
O 6.343910772050817 2.7257544881609292 -1.947384777989302
H 1.483566524787702 -0.006608809723695689 0.9231126315771329
H 3.292859841163638 0.3685620797568721 0.7971072404710692
H 1.0276668217438183 1.0708403272027558 -1.1978758798595197
H 4.610152451661788 0.5975712332064277 -1.1166392140500605
H 4.3923828970949375 2.16284508450976 -0.29365345799626996
H 4.963559208061635 1.8750170885819752 -3.3148729428052515
H 5.043893529252897 4.299793895635207 -1.3648296701610054
H 5.561320508424325 4.304975298666849 -3.130493193978963