15

C 1.103144654359526 -1.977311640382321 -1.0738594916465365
C 2.2818606991001658 -1.516392778751603 -0.6946271688343462
O 3.4462999368707736 -1.9453910085321802 -1.2482461735287051
C 4.606844431729216 -1.4202285298438266 -0.801317827479034
C 5.779277060259643 -1.801232610072306 -1.3002051819570277
C 7.030954962075232 -1.2434492802201593 -0.8258569670993843
C 8.237929296895736 -1.5856064389555538 -1.2886614170500534
H 0.20672475149531144 -1.605886939039435 -0.6111378831974789
H 1.0201032115240118 -2.7305002641117713 -1.8596250286785536
H 2.4025686434532694 -0.7597383375551578 0.08164563662931712
H 4.514253672136444 -0.6814803530597116 -0.00785364520021085
H 5.81217340832699 -2.5437204127763873 -2.0859588066717
H 6.958410134616677 -0.5028020203776301 -0.039815862828431345
H 8.353533915858307 -2.3250985312102084 -2.0751134326317673
H 9.13456728616422 -1.1335467869033022 -0.8991168285361355