15

C 2.698012341317818 -0.7043844794350144 0.7976597744196458
C 2.2244573025167336 0.035356155611539986 -0.19494146375099822
O 2.908941948004244 0.8505763546650105 -1.023405909258025
C 4.300666024197645 0.9433647494771823 -0.8253284769397886
C 4.844140479732142 1.8993452353052171 -1.8641638098408746
C 6.281646740145807 2.066250275332397 -1.749057452684962
C 7.471508994479871 2.189031745946664 -1.630320580165845
H 2.009708042188298 -1.304990007610727 1.3708402833755133
H 3.751430974974154 -0.7331222909724426 1.0733251776993566
H 1.169420135218677 0.055399060606036755 -0.44200553498594386
H 4.7629310616768 -0.051618533134228844 -0.9423898872797519
H 4.515941221615406 1.3004974235803615 0.18313591615434285
H 4.342194524374192 2.8681028723662734 -1.7479739675173085
H 4.594867673413757 1.5291940384160891 -2.8671285219201867
H 8.519045466279142 2.29741383422739 -1.5338363420253023