13

C 1.0180198394168805 -0.11941434927216918 -0.17723655329939972
C 2.5247789249651844 -0.09717606352506565 -0.16601989698130706
O 3.174115318521918 -1.039578013311082 -0.5510999252445867
C 3.21964609904622 1.1381718492188262 0.3459834602900388
C 2.537938296577394 2.1979050245893683 0.7894359997920517
C 4.644365257193783 1.1088706514667295 0.3398487338529981
C 5.841545424724265 1.0917360334795336 0.3350667690287277
H 0.6923650769079599 -1.0806841628690207 -0.5730254364692733
H 0.6268703874186987 0.6844614620245714 -0.7983393497341728
H 0.617425885559818 0.007449812073707297 0.8360059775043851
H 1.4601846945149628 2.2151768393746343 0.790245459812642
H 3.0593192086818903 3.080482191426834 1.1543874553489324
H 6.907822332104696 1.066081017730795 0.32532685627702645