19

C 3.0685396205366424 -1.120355112967903 0.9707269079049672
C 2.5735852606187914 0.055902847724901915 0.16078280355258526
O 1.6081809078367577 0.6828799517622838 0.5200917265531003
C 3.3166885539668542 0.40841369824697477 -1.1271309922595492
C 2.9389416676771574 -0.6534389234888051 -2.1851170326686744
C 2.8779398820433757 1.7859985899719548 -1.6177249304408972
C 4.832284736110859 0.38643951619634603 -0.8961037396295405
H 2.2724475106192523 -1.4416144956497263 1.6500047261085
H 3.9157860006250726 -0.7962552606501332 1.5780120838834006
H 3.4038546899843776 -1.9551226659651946 0.36098241093648314
H 1.8621286426910288 -0.6623943383489497 -2.3560216429328253
H 3.250238763842728 -1.6514178350648077 -1.891153517114796
H 3.437046420613288 -0.41033225914881055 -3.127797608609988
H 1.80330231626077 1.8192565188162793 -1.779747723926842
H 3.3904923444750596 2.0272261400181306 -2.5510977027890402
H 3.1252857688250533 2.5570495080044426 -0.8781603767615888
H 5.189625502824525 -0.6072451348770567 -0.5971617201460856
H 5.12514699673348 1.1021297578703662 -0.1361483033897394
H 5.342452979484138 0.6502413213065126 -1.8243490123776447