11

C 1.0307773158350735 -0.06877044596022272 -0.06820561363210269
C 2.5301702087395452 -0.0019024279239757014 -0.1364089014870264
O 3.1290244833444314 0.7122591471187923 -0.903681974205181
C 3.235785233272792 -0.8672405561715137 0.7937848118310087
C 3.815272279623447 -1.5982452976857096 1.5638828146576704
C 4.471815892095237 -2.4028007582592474 2.436883645609238
C 5.06194201405633 -3.1215818485978524 3.2008639038973885
H 0.604656041238537 0.6101460477283508 -0.8036728711317819
H 0.6882263397939341 0.19109105533799084 0.9397660656845439
H 0.6893343045695113 -1.0942868731328328 -0.26344489647108976
H 5.583083828458445 -3.7592915076722226 3.8819273723795678