17

C 1.09627070226615 0.06615197704262772 -0.9202620909383883
C 2.573866796835739 0.1968354145980159 -0.6836873592808947
O 3.2493827304850265 1.0059371329811364 -1.2736882888665852
C 3.1781057641402817 -0.7638074721308049 0.32640315896864824
C 4.693720392853469 -0.7240291333352312 0.38610988318832157
C 5.240392220793967 -1.6054022234743315 1.4618953587180779
C 6.06350269217111 -2.62444257241806 1.2779426887795253
H 0.7410910310777913 0.9162377615061091 -1.5045403757869038
H 0.5543028385096198 -0.0003294903169049493 0.025406578374392138
H 0.8914972645803471 -0.8611329647029677 -1.4710182064386934
H 2.8143731551647893 -1.7708761219195237 0.10112447566246889
H 2.7434629182744987 -0.5107237652365152 1.2954202329582412
H 5.0101236829057925 0.3111723876467452 0.5453216664913457
H 5.108871501297128 -1.017999243964916 -0.5868729874783134
H 4.923343626508174 -1.3604443893919342 2.4786930372535614
H 6.406217589266638 -2.900055316914669 0.28545035812097835
H 6.421863035164105 -3.2222665612371455 2.1082615125198547