15

C 1.0109503244039055 0.2660636771482855 0.08654455127618246
C 2.527679289450834 0.07133616792479235 -0.0022579272305973033
O 3.158964990074909 0.7584108744409547 1.086329746663575
C 2.8555041475558993 -1.3975379377720774 0.0744848591555328
C 3.4872552528171927 -2.1173766667595006 -0.843373159533884
C 3.0348996581429395 0.6916094211952459 -1.2284351063560026
C 3.406081373387416 1.1832084007669574 -2.25119982869637
H 0.6320147286993658 -0.19151091608643522 0.9926806524119924
H 0.5150467181033846 -0.19372867568247085 -0.7690620520010054
H 0.7730590440212561 1.3288305641980382 0.10330821313249092
H 2.8596602933168507 0.35142147950349584 1.8976835305454485
H 2.5149519873922577 -1.875519451254744 0.992240038745773
H 3.8371005977603048 -1.6765543786875254 -1.7624556974487202
H 3.6793544148410757 -3.1714004510227176 -0.6893732449078116
H 3.7504290417958255 1.6427917373368335 -3.1520109556017117