13

C 1.0441815540795025 -0.03177604808228987 0.04308811168197268
C 2.5806403665484132 -0.028115998287919452 0.056447037375096674
O 3.0876683311589326 -0.3994605485830649 -1.2215889495115835
C 3.064797732296207 1.3140781538335196 0.4304366878943156
C 3.427001055293624 2.425013366461265 0.6904002164207974
C 3.069113713169857 -1.019096580762449 1.0178123648763733
C 3.436763120236237 -1.8332434138806193 1.8130314208122909
H 0.6799325598261141 0.709233137876847 -0.667740137550871
H 0.6503421364045981 0.20600864194510532 1.0267594147835069
H 0.7060152936891798 -1.0275950867456793 -0.2575777703775258
H 2.9748220426957013 0.36415172431057263 -1.8027051024861702
H 3.76886971570539 3.4008908991820697 0.9302399239423729
H 3.7743505153823076 -2.551620743383098 2.520781990032291