17

C 3.849730098550699 0.4333652552267257 -0.9650435859918821
C 2.7246835872709623 -0.05485388183556901 -0.08426982664800874
O 2.0372867581664598 -1.1422749071920415 -0.6785912362612228
C 3.122742871372802 -0.41102314325233447 1.317834662524111
C 4.341927555825025 -0.2907531446851424 1.8599323330204252
C 4.653070715717111 -0.6711036565275073 3.218315204707197
C 5.8617405188076726 -0.5573573495022484 3.7704874738745286
H 3.4617236555993105 0.6433185917797595 -1.9675624148111988
H 4.641927711875165 -0.3118880746328291 -1.062687638576163
H 4.294720540532253 1.3585975576373148 -0.5807977130503288
H 1.9641588556164464 0.732215965875858 -0.02066494705251063
H 2.627395401011022 -1.9082821801208623 -0.6534012754078463
H 2.3100496966740196 -0.8212581237792496 1.9223402671106407
H 5.152807847174255 0.11925546018668255 1.2670153336682266
H 3.838699636555562 -1.0882569181584845 3.8053439478833018
H 6.698629304746866 -0.15311691515543488 3.204456813197609
H 6.054714173956538 -0.8537876182185746 4.792729697359117