15

C 0.9074635894969093 -0.13904520846806748 -0.04165890838416396
C 2.402037251681734 0.06671523836361923 -0.15648196937081033
O 3.1099105642768667 -0.7691846911780333 0.7392041980170542
C 2.884568608572698 -0.13324549285013892 -1.5880478496393824
C 3.3402072796708158 0.8648905874973463 -2.3368767508739277
C 2.8221042924569693 -1.4779018883984776 -2.0694959001839717
C 2.758484541587016 -2.63348006832504 -2.397648308801487
H 0.6040405980809653 -0.003396130317039066 1.0039903328486375
H 0.6226017923544618 -1.150926627517041 -0.3482064221219991
H 0.36371574000178547 0.5688233200203486 -0.6664243614443617
H 2.658897757091415 1.0855321431308984 0.13434779362788918
H 3.001547501023049 -1.6789063522406527 0.44925069757966773
H 3.386103685551422 1.8799137436834885 -1.9401489476407137
H 3.66766288980094 0.711234355631064 -3.358294204726043
H 2.7131686743235983 -3.6415347973844288 -2.724968771941247