17

C 2.742550955961458 -0.23891015233187843 1.364850422311454
C 2.4237312175130237 -0.005685025245538345 -0.09867083290699398
O 2.8652037247565834 1.2576527902112025 -0.5372624845586595
C 2.9734332608341534 -1.1281576055594633 -1.0000210993829834
C 2.4191574504190974 -1.0128591429303144 -2.4228811833466075
C 4.427594994757488 -1.1069078456934902 -0.9966982805961733
C 5.629000813669476 -1.036785910872362 -0.9967312742719355
H 2.34043749949237 0.5767802420183629 1.9652512472803803
H 3.82387859309918 -0.28331607772434075 1.5284756199802116
H 2.3158301858870556 -1.176688711412538 1.7273007880763886
H 1.3402427354045268 0.007119406137685507 -0.22541676082938455
H 3.830378236321311 1.2563851381196365 -0.4985764927120295
H 2.6486186493693413 -2.091666025651357 -0.5697647741637668
H 2.6766171795335225 -0.04151957363832329 -2.84847583994859
H 1.332947155086895 -1.1100071842802566 -2.4171507162251324
H 2.8313903765036446 -1.795789924814924 -3.0678210247849886
H 6.687585369082766 -0.9953987883562447 -1.0033366870745097