15

C 1.0826089448578602 -0.19161993137018785 -0.11425402317993649
C 2.565404260344105 0.07478514797283715 0.06244491416149774
O 2.909750484673023 1.4140851388786893 -0.2547567408673086
C 3.0288258756196447 -0.30394926894712293 1.3967342130205869
C 3.394861808374382 -0.5804295888079817 2.507607570654238
C 3.802319580356513 -0.936139264249903 3.8233370215438636
C 4.871558801412413 -0.44145701581714053 4.444626877178271
H 0.7768853733150632 0.09745591427947772 -1.1204854335922543
H 0.5054314528803395 0.39938904806006303 0.6057884668038983
H 0.8531854268416327 -1.250283334103695 0.048792034377744244
H 3.1211836204186287 -0.5259272844654218 -0.6783729657904406
H 2.6038597667499466 1.9658660265226904 0.4709786510040404
H 3.1788439512331625 -1.6662951668842672 4.329300898685828
H 5.515861755404192 0.28482111793608056 3.9628734469219884
H 5.125600197296475 -0.7503543993837477 5.450172229377346