19

C 3.7218346779108034 -0.024774161492346687 -1.8735815095665889
C 3.109816624830043 -0.2739531177006048 -0.5092839922438428
O 3.044886656997698 -1.6571048458479618 -0.21607464545560295
C 3.8642299277369427 0.4086605493731738 0.6299552716849686
C 5.332699018477037 0.13084226165118354 0.7295187887762798
C 5.74066983901044 -1.2289026368922282 1.2157972056468405
C 6.234111120541112 1.0524789200628417 0.4041004919684307
H 3.1349097243641966 -0.500220520537722 -2.659299014450566
H 4.7414692090856025 -0.42041209484153175 -1.918464325741278
H 3.7643838863664074 1.0475749059486368 -2.091238943721496
H 2.0907094526777015 0.14544725318313867 -0.5041312443098174
H 2.617496049676235 -2.098373506912936 -0.9629274910218202
H 3.3673544471978016 0.1154331958132574 1.5564290020757576
H 3.709345345843175 1.4923974998306349 0.5163557344401798
H 5.329193385376942 -1.410186439617609 2.2142871831312814
H 6.830325482596645 -1.3183443149133938 1.2704029782424084
H 5.343376499040825 -2.0101702723834083 0.5756151961253275
H 5.939161161970063 2.044432957089907 0.06265907585345436
H 7.29996557586026 0.8654841078735719 0.48248543681419276