19

C 3.664660512456573 2.9228485144351626 3.183444465784888
C 4.623437804567347 2.7708481551796402 2.0301957374676647
O 4.058545187295894 1.8676353592140362 1.0974235971014006
C 4.7844554313918275 1.612290733314843 -0.010560581752981864
C 5.975755013304011 2.089583431945535 -0.3629649215011282
C 6.648672848429603 1.7199642904055266 -1.6432626379341175
C 6.897754730217354 2.9103599896161243 -2.559763671034584
H 4.066421037538275 3.6130779115269664 3.9180054377738975
H 3.4885630439277224 1.9565119836786002 3.6684884412388827
H 2.6936354082158136 3.3043619827616695 2.832074309710036
H 5.594304343990665 2.3974825376362774 2.374478204109595
H 4.7959929657771845 3.738594707794185 1.5335267971981021
H 4.248023280715326 0.905546901939473 -0.6484410243108405
H 6.489959186438332 2.7995917328640454 0.2840019525346103
H 6.043571253896542 0.9620444056034494 -2.162254012863439
H 7.611240840590459 1.2392168907249195 -1.4187900260317574
H 5.954222950595334 3.378329692794537 -2.843885805541399
H 7.4199844519205165 2.6044375033987257 -3.472049321650244
H 7.507094126010721 3.669827131416779 -2.062381631548486