21

C 2.366622258422477 -2.4228597629841033 1.7954427235115828
C 3.2840665557536344 -1.4373849757048316 1.1285432689950454
O 4.403467915661019 -2.123736625736365 0.6361984189807424
C 5.318373690576978 -1.3271891001082963 -0.10559617475777788
C 6.184146421779078 -0.47128893089100027 0.8010189432348831
C 6.146493814616933 -2.2727571965645605 -0.9594924324285613
C 5.330385355753462 -3.0671047035942474 -1.9676384247816763
H 1.48637735938981 -1.9235510274227705 2.1857927920960383
H 2.877012610804005 -2.922816116034103 2.6242162919257184
H 2.0437511002533504 -3.19061504778032 1.0843200680122702
H 3.585076042363107 -0.6595023079521503 1.8507411561434357
H 2.769708453830967 -0.9229641525590881 0.2987700649882728
H 4.73802032082355 -0.6753079088975583 -0.7837547168862191
H 6.771316432656833 -1.1137034953040534 1.463947222566898
H 5.5827120423653955 0.1991282179467203 1.4208299588358608
H 6.865472600339643 0.13500490699506418 0.20418431689527572
H 6.673257942186323 -2.953620400799869 -0.27863906521236387
H 6.919874574251096 -1.686133583070057 -1.4644504125566933
H 4.569759885710871 -3.662106707633103 -1.458724754568815
H 5.965109128667427 -3.734981149092453 -2.5449027026564766
H 4.831606752692315 -2.4025462450265036 -2.670130042382611