19

C 1.5408712199412935 1.6134432234243732 1.7060401932582203
C 2.993820909449749 1.8022310612585597 2.082307910183939
O 3.781737844990836 1.0884368673936857 1.1564823308013084
C 5.135137556779768 1.1123493850873416 1.2963691116733043
C 5.74095076936525 0.2950206887561314 0.21035750123906227
C 5.781776780137053 1.7737228879439986 2.2622242138358533
C 7.2566362149180526 1.8425335641259537 2.4656048643439537
H 0.8956258444236777 2.1505554845893826 2.409297050460171
H 1.2705441721903443 0.5557866830548381 1.7359859089045697
H 1.351420311741938 1.9853065370976681 0.6978500573335048
H 3.1770946751255775 1.430850239623707 3.1039468189185673
H 3.2596532810983043 2.867241442954826 2.058132363128274
H 5.369454528363025 -0.737269022791619 0.27005870814146377
H 6.830132076236969 0.27566097317948923 0.266444960344863
H 5.451648601216234 0.6867259754091595 -0.7640165088406866
H 5.191011221216677 2.3305490791162016 2.9803415480724125
H 7.813637466268659 1.271049166026817 1.7184448869450284
H 7.539990127561631 1.4489484071421725 3.4433794679893888
H 7.617087750435259 2.8761003272635453 2.414878534415472