17

C 0.7486307587826561 1.7596160666245366 -0.5066483747161628
C 2.224769668937261 2.0228618999454073 -0.3194643883641749
O 2.9377542734327147 0.9797469369918609 -0.9338732285510168
C 4.33540971304072 1.0819275200773693 -0.8096849943337147
C 4.948996423904081 -0.20758876838931628 -1.3197419309586853
C 4.8740369720528545 2.255631336615674 -1.5222501960679742
C 5.321221018937017 3.2043075893265556 -2.106189218288734
H 0.16554890322476667 2.544848000559516 -0.02878055473209924
H 0.45941004629814963 0.8030128254333595 -0.06237087073608497
H 0.4938232820905209 1.7372611734472303 -1.5632378411215373
H 2.4740687780660378 2.058001187938741 0.748494511857173
H 2.498970522265639 2.986810923532408 -0.7611675247709171
H 4.595839792145637 1.2082435940982663 0.2602331539906475
H 4.694602666855976 -0.3414017212897788 -2.370852801648077
H 4.552394325637715 -1.0450472992998174 -0.7490939084797961
H 6.031989822174239 -0.18084200280647386 -1.227774288134035
H 5.713795611151156 4.041448100020638 -2.6376583504215514