17

C 0.938902772293589 -0.024146036530833675 -0.1252642656384828
C 2.431618915958786 -0.005032341876357293 0.0656122460748585
O 2.949751816659217 -1.2645079716198038 -0.2753038315169717
C 4.346781009256336 -1.3181734573171737 -0.13347039666587213
C 4.8437270542671484 -2.6383353098808455 -0.48726680785785126
C 5.276728812833645 -3.7159419276485055 -0.7744066359785501
C 5.793352598246987 -5.02745837844001 -1.1271993370329623
H 0.5086577202691475 0.9518455271776987 0.12909835236665954
H 0.4810839721136268 -0.7750313801406493 0.5204339783283519
H 0.6797504451572401 -0.2536607807297504 -1.1592231497594427
H 2.695463609140417 0.24570842636207477 1.108131902611881
H 2.893013639834293 0.7777984862113855 -0.5695760883699048
H 4.631380200936728 -1.0939875383544673 0.9135958929211886
H 4.823625771333427 -0.5582446819000405 -0.761701102884119
H 4.979724412493535 -5.685489992133462 -1.439236282507566
H 6.304394538256453 -5.492645428225555 -0.2823999075482846
H 6.505507976034389 -4.963026473350363 -1.9624149553547536