13

C 1.2116076496114516 1.1587574911009335 0.5115606036573122
C 2.492185350458237 0.8436143438927035 0.4812798174937163
O 3.439543097041581 1.675401613900876 0.9981596427048095
C 4.71858328674027 1.3003042917108127 0.94105793282803
C 5.7121180027449965 2.055959917462054 1.41941168703557
C 7.077183040110226 1.5623934209272532 1.3224770196995148
O 8.051495238794422 2.1545492593559805 1.7209683561841869
H 0.4900990730417467 0.4709600183494687 0.09257846796117959
H 0.8658281672401761 2.0921276731078766 0.93869503468913
H 2.8739780291771897 -0.0849240339407713 0.06303067207308985
H 4.917205772660151 0.32778409966613203 0.48920727341447373
H 5.536880077209193 3.0196343209544514 1.8801327902855993
H 7.174573645024687 0.558831750795765 0.8368632879997024