17

C 0.5953810347195032 -0.3907655334860197 -0.01865867249764834
C 1.9082082041769333 0.1730263535187732 -0.4796664967863572
O 1.9893529738323923 0.8712452056898228 -1.4605311615937384
C 3.1145825494287234 -0.18408584472619732 0.35954567628233625
C 4.440293618292437 0.18411594002738677 -0.26971861183468987
C 4.832822694191171 -0.7429990071635278 -1.4099956469040036
O 4.956966263537189 -2.0952950156981225 -0.993988878607346
H -0.22776413186972003 0.08764338212728533 -0.5478679172539486
H 0.466793630362216 -0.2830110900432778 1.061043030474537
H 0.5776955200325391 -1.4652815106453554 -0.23113246855810846
H 3.073970397403609 -1.2576168763514952 0.5943438544898388
H 2.9859296023913844 0.3285517594766743 1.322299364428345
H 5.2293388543108135 0.17348458090548924 0.48957412770108977
H 4.39322235362626 1.2059185760231623 -0.6584798357271195
H 5.767623075436659 -0.3898108089759944 -1.8689722536579187
H 4.061528633971969 -0.7397234233291569 -2.1788746304040596
H 5.71108202638041 -2.157997706034579 -0.3894752650235924