15

C 2.096292356482754 0.09495727565541512 1.2305821958811458
C 3.409866670651043 -0.018919465692954416 0.5078899340789809
O 4.459641394402739 -0.14176871309741756 1.1098547730767079
C 3.352866544092228 0.030932915337866643 -0.9758155870100828
C 4.45837005221375 0.00322740908059838 -1.7024240969640334
C 4.523808169528361 0.0461248183852552 -3.1924990487362783
O 3.2752917698127004 0.03448213418226743 -3.8413578821051395
H 2.2541985141895577 0.05694506000356279 2.306871406611607
H 1.4344236055994772 -0.7150750430111715 0.9184372012552635
H 1.6041837050106318 1.0323422393906398 0.9545334550832386
H 2.3748113453163087 0.12497138072320066 -1.4406948948460387
H 5.416962846309663 -0.0724827659087561 -1.1849033968170015
H 5.1673603031804065 -0.7799796520440767 -3.5402053614008464
H 5.0247897685480565 0.9661119924492341 -3.5016076498114885
H 2.835869235166297 -0.7898148068945865 -3.637306087520561