15

C 0.9029916699306547 -0.17865441666097776 0.1715856915163013
C 2.406435782044292 -0.15622159156893412 0.13250955579225115
O 3.0316732397935957 0.6732650266033061 0.7556424800644952
C 3.147779445289356 -1.1597364673404273 -0.6766366897087611
C 2.518425698863124 -2.1222328662127254 -1.3567599490650613
C 4.641288950748686 -1.0067414704281654 -0.6983032088654962
O 5.2134038905513815 -1.0891839073863026 0.5845291416335631
H 0.5626607270944304 0.6418428478343011 0.7979805299834366
H 0.5438601606239677 -1.124326408480296 0.5696214483255837
H 0.48798501947950834 -0.06382468590576429 -0.8344708595911795
H 1.4406579890931164 -2.2178316333939097 -1.3600148692625997
H 3.0708115648151644 -2.850071486002997 -1.9327596753578
H 4.8991853528508 -0.05449028070915744 -1.1879546713088263
H 5.080763140498894 -1.8146045372314352 -1.2896893008879926
H 4.861254904110541 -0.3347365282890499 1.0739992553811002