17

C 2.931305784344995 -1.1374456448577512 -0.38270340823034443
C 2.4554508177150516 0.28745146478479017 -0.4267190569908961
O 1.4979026924061307 0.6132113491318464 -1.0799548845106015
C 3.2569845078396233 1.3142901580158286 0.40175851351272346
C 2.740331917868581 2.719017263122387 0.15622746612264535
C 3.1800766627146877 0.9460170206500703 1.8743000850819964
O 4.63007406071913 1.21068618138438 0.034999053617331535
H 2.601099210508395 -1.6618144579241285 -1.2802043440114408
H 2.481801877036813 -1.6274982635215434 0.4763021597646669
H 4.017342800512346 -1.1972228556931717 -0.2724035527987845
H 1.6926119672271625 2.8071688219218514 0.4506408090341636
H 2.792938208835375 2.9726017648732226 -0.9080440122453204
H 3.336355884827618 3.432464220165841 0.7273934388941493
H 2.1522191628338767 0.9310708240997204 2.2242311812894586
H 3.741019976023476 1.688293917220572 2.45476910925985
H 3.630518188081181 -0.03282265678823867 2.0545382953354125
H 4.744053638562106 1.6311590924197796 -0.8252966931269945