11

C 0.9271475239866837 0.016807986532417097 0.004011489261135035
C 2.4242618145143857 0.14144249472254397 0.02190863244998649
O 3.0418849435304183 0.6171228666424922 0.9316668765407579
C 3.111926142810122 -0.36565279267080153 -1.1484048005004819
C 3.6830101567171085 -0.7548961255730604 -2.137947078891084
C 4.384802009248862 -1.2803197957510932 -3.283991444994669
O 4.526187778940477 -0.6695033878227612 -4.313126357877732
H 0.5180814908919839 0.41419105520311433 0.9238370968601306
H 0.6466536973106094 -1.0286583763073918 -0.11468336431103099
H 0.5230839489259896 0.5616134218462625 -0.8609119255618458
H 4.784090468886843 -2.2996703099445224 -3.152068665473733