19

C 3.9713736712050514 -0.7854583634341251 -0.7837236687228324
C 3.167709423953283 0.17476067925134206 0.08189102948756988
O 3.9171965525289423 0.5450782834048911 1.230179976188498
C 2.61614791636017 1.3998087236032397 -0.6547316497928597
C 1.8667210560100358 0.9831767246271033 -1.9138929976594974
C 3.7004378536838245 2.4121256910217386 -0.9969598248399018
O 1.687260548682432 1.975556917750664 0.2595225843430532
H 4.357138054961629 -1.5952726992255422 -0.15860699241691512
H 4.829846386458555 -0.2829320371416285 -1.2493932951367075
H 3.372820443834811 -1.2234271134629355 -1.57555388587973
H 2.299672614927209 -0.35202117437438485 0.47602681023069965
H 4.787780824235905 0.8281815650078813 0.9432311378782496
H 1.3230336890111454 1.8359498013249433 -2.331303085150135
H 1.1288341708097627 0.2102642262304471 -1.688122187028088
H 2.5305896728206463 0.6099188345803439 -2.6999234914211767
H 4.473519999817739 1.979413309082722 -1.631146274861902
H 4.15934144094284 2.7867259303515035 -0.08070356353178922
H 3.2706947299858253 3.2606539200637825 -1.5321922123280833
H 1.3420479443166202 2.778924137477479 -0.1339497959707655