17

C 3.666334499880142 0.7937989673687401 -0.8433975090188217
C 3.0808751377030195 -0.542162181229037 -0.41956809025915637
O 3.4433096146414903 -1.5799402430988514 -1.2941303287020995
C 3.406898442873116 -0.8987656749385987 1.0344993099031885
C 2.585641293385427 -2.093820451894497 1.5354321501601205
C 4.85461351546944 -1.2019753520996677 1.2685221765439947
O 5.681736871672158 -1.379182927595472 0.4130171866806517
H 3.3796872383605 1.0093734455137144 -1.8789123451452192
H 4.757727159904437 0.7804245368482716 -0.7900759935045054
H 3.298183602826403 1.6042428219474947 -0.2120530815064941
H 1.9827804084853573 -0.47422340621484754 -0.48977576933144545
H 4.391976430673237 -1.6864858424436366 -1.2169876130504096
H 3.1691686748872803 -0.03489462323345985 1.6800594318561966
H 2.712949629984305 -2.941578936251764 0.870018014491629
H 1.5248465941371714 -1.8319467185047844 1.5676385089043576
H 2.885407157583249 -2.394932746489476 2.5444862957567556
H 5.1425274917457555 -1.297169096036131 2.338333715589327