19

C 1.7623928435639824 1.2684429550502336 -0.16807065223629705
C 3.1923913167762383 0.7829081167901646 -0.3427450392847815
O 4.096090806642336 1.6109819323650683 0.4096947185153559
C 3.3502606252970257 -0.6828608935832682 0.010019041457584182
C 4.752293082259159 -1.2599811768539537 -0.16978831858576893
C 5.279637810469006 -1.164556141050365 -1.592136636799233
O 5.672793866976482 -0.699687397940811 0.7504135865598093
H 1.688511736331358 2.327319367157391 -0.4125595111403165
H 1.431169642366727 1.1174413357440016 0.8620439336181968
H 1.0789929781232765 0.7102947800210716 -0.8110448275333828
H 3.495434595295515 0.9433077833248337 -1.3865390178719117
H 3.7770651327215226 1.6385996517579888 1.3140364483584723
H 2.6481765139335094 -1.2680794505742303 -0.6012857412361561
H 3.0529033600439472 -0.8351187962336518 1.057780740276765
H 4.701231840439318 -2.3256885843646153 0.1041047032243023
H 5.411964862850501 -0.12259255811548339 -1.8927593648902574
H 4.594166438804426 -1.639762056630636 -2.300919068225133
H 6.246275763822199 -1.6589170689495174 -1.6646318561105282
H 5.567992257911841 0.26168086104656424 0.6796121723296628