17

C 1.009821202272752 -0.030181180531067286 0.010889429151329537
C 2.5224716720257048 -0.06405392749953912 0.1256772583119522
O 3.0818128736661463 -1.0514637009955448 -0.7087775609634672
C 3.1370540283222232 1.3135824179124707 -0.12232307958020941
C 4.655041473012076 1.3071095019104637 -0.16253583799274962
C 5.26442109520116 0.9312246546937993 -1.484439229752638
O 4.651163557270111 0.6400117690893765 -2.476494938717364
H 0.5997604045670386 -1.0210954596773745 0.1979245007112544
H 0.7136895863817065 0.2838484215734371 -1.0043052398126024
H 0.5718973867663305 0.6766210875090625 0.7230300867255971
H 2.788519789052598 -0.3705417813009671 1.1469196649797193
H 3.195841591114226 -0.6809940671288635 -1.5862154862219542
H 2.7925034063433696 1.990302643202911 0.6616918168844659
H 2.7595188077513817 1.7005482332674187 -1.0794671283425084
H 5.086208584106445 0.6228100210190167 0.5813599031386308
H 5.073033759688451 2.291946555105039 0.08431529020972145
H 6.371489545389006 0.9710529385098408 -1.5060486286808104