15

C 0.7137093829239793 0.7503352115578994 0.5217677035114056
C 2.025525372133616 0.6454787548634464 -0.21920842510958383
O 2.074343182488321 -0.4599906094891032 -1.1073463366229106
C 2.370312971245428 -1.676515696343776 -0.6140029595563833
C 2.639739393806786 -2.013011055398556 0.6466431641215451
C 2.3106399460453995 1.872615782173291 -1.0697320969256081
O 2.1053054004773153 2.986812722338151 -0.6896879256246568
H 0.5599255059094922 -0.102368623910346 1.1779601996751257
H -0.11742338893307085 0.7988973250164947 -0.18707477227296035
H 0.7034507111623756 1.67034961784503 1.1069993098163038
H 2.8636457730907607 0.5748191501515536 0.49210018291292784
H 2.3931201007407394 -2.399637310856053 -1.4121698334426678
H 2.6169261292545762 -1.3255085099190622 1.4842898063785546
H 2.8779288486367167 -3.046659089924847 0.8555483011588766
H 2.7418297658269166 1.6494141472888528 -2.060840949709944