15

C 2.433255355130269 -0.8509427318345335 0.18057621457895526
C 3.435944100604939 -0.6793219525092541 -0.9342796473952575
O 4.6603194626740745 -1.24589686698326 -0.5229808579182555
C 5.683813782768895 -1.1892077182722993 -1.4016582641459179
C 5.694987498808082 -0.6626421465448226 -2.6274674350335876
C 6.902549197571316 -1.8239901776263032 -0.8163581568646746
O 7.955501846898592 -1.9138793085141872 -1.3737283407350047
H 1.471201744059425 -0.4213316894650234 -0.11254617455481195
H 2.773187823275779 -0.33661540357327235 1.0791482116878777
H 2.2813619212292724 -1.901905448962547 0.40276286621907437
H 3.5871648688737325 0.38124223568813315 -1.1749178548897685
H 3.092253497271231 -1.1831405154928385 -1.8541905232263063
H 4.83342833467847 -0.19280650102587815 -3.0871541161107974
H 6.619543268357383 -0.7156228023690091 -3.1795404719396405
H 6.7490380675666675 -2.2162809177105305 0.20674251694322243