17

C 0.9214190508332843 2.013586066948572 -0.02800587896419431
C 2.330039117351066 2.0287688318252557 0.4942987144699014
O 3.189655366599771 1.5068384795670158 -0.512296679505509
C 4.533309117754878 1.4858366176158406 -0.1274274891604062
C 5.307641594356702 0.647939518490398 -1.1380249374694358
C 5.119309833866406 2.8839050649036833 -0.1027723875601342
O 6.0368490096460246 3.2314667744004333 0.5895416203036182
H 0.22762194792924387 2.399928824979543 0.7255966879781683
H 0.6149962914955007 0.9995790504786636 -0.295015849119022
H 0.8327163137805668 2.6401299240547518 -0.9224116036399121
H 2.4156634451053534 1.4028800339095489 1.4024808970791556
H 2.63549937640012 3.044648856278281 0.7682572484271949
H 4.657164743266396 1.0513986534170077 0.8867197269936766
H 5.219732862761855 1.0965579952223516 -2.128746933889367
H 4.883678351126287 -0.35764733224707534 -1.1716702171434863
H 6.357835917118578 0.5948394260242398 -0.8616042890311877
H 4.6446883706977005 3.5712907236072966 -0.8402850327734073