17

C 1.2751238836426715 0.2610668965266982 0.5409622783297497
C 2.764537470717082 0.5329485210192617 0.5623921890152678
O 3.0572574102912102 1.3895379535224432 1.6357731018670487
C 4.420274455849755 1.6917326930685739 1.7291414677517634
C 4.7202360151555744 2.6095173486552143 2.8943459453319687
C 3.5793741551627924 3.056041014075579 3.7485956589620426
O 5.857229937208878 2.949312811424774 3.0846579687422646
H 1.0252018101952358 -0.4031486140931564 -0.282542411655341
H 0.7180146873183809 1.1947624329988864 0.4232183802869084
H 0.9617947461518124 -0.206408611206999 1.4774014172570582
H 3.0832215932752263 0.9952630506082073 -0.38499871141928277
H 3.3204387364162145 -0.40551680097494125 0.6666586363094478
H 4.7875361983130205 2.1842309638181723 0.81732164159327
H 5.023447314668076 0.7765724786976781 1.8664363356307494
H 2.8317840479250918 3.571162291799348 3.13694929510609
H 3.9422209422442926 3.715108845597965 4.542058567495455
H 3.067151074695746 2.1895974988473212 4.1765146428221085