17

C 1.7441615933394994 -1.236932402070918 0.5737883787596666
C 2.9995066769036525 -0.647756577629369 -0.030509361098757348
O 3.456347010491718 -1.4995874251280268 -1.0560115020234324
C 4.631156684278597 -1.0287999016425362 -1.6626524698823928
C 5.007300740878405 -1.9900174737591452 -2.771907754558545
C 4.037519171026868 -1.9800021985385192 -3.9259048513664783
O 4.364342837240886 -2.039717206864658 -5.078490955744735
H 1.3764303204372539 -0.5909299020065236 1.3706268037515348
H 1.9523639215512867 -2.2235805696336217 0.9931215872355924
H 0.9647482378691186 -1.3293441250889229 -0.18297379935764396
H 3.7803809670854895 -0.5348990414090609 0.7360829638602298
H 2.7953098315153735 0.3540992860597241 -0.43676693462770316
H 5.450743537402122 -0.9610640883271636 -0.9348978940433098
H 4.4743542534647895 -0.018222745748398522 -2.0686229200673836
H 5.025136824952378 -3.0004779721718693 -2.3639474957379223
H 6.005113568177154 -1.7682583343322456 -3.1603684639999803
H 2.968987337277737 -1.922417309526625 -3.6330595548465774