11

C 0.9787313808656143 0.1728010482528955 0.36590117479551115
C 2.308983458101514 0.21033275770007423 0.2994235353117007
O 3.211171499029564 -0.593407777441086 0.9871645408455155
C 2.8513436810278576 -1.5478312879506366 1.8646356310918024
O 1.7424545664335944 -1.8678883157770654 2.1824858543818655
C 3.021354427931531 1.110853689453407 -0.5412859211734478
C 3.6167534407451654 1.8862229116278473 -1.2470655334392773
H 0.44648544982780897 -0.508097169605754 0.9909135323246065
H 0.43692326686698657 0.8792907824544183 -0.2504648783815552
H 3.7637242588450333 -2.009011991941854 2.249360698942159
H 4.142935998376084 2.5663811087283133 -1.873767453161673