13

C 0.9749701469670925 0.03938558789752198 0.006027636151543291
C 2.4867460126219227 0.08344545049736671 -0.025594061021717223
O 3.0511407234040764 0.2580952628881379 1.2690023689169365
C 3.0929422322504103 -1.2215189648110385 -0.5730602252653311
O 2.4440119196744616 -2.150402425949022 -0.9608322308147814
C 2.982084741113432 1.1666650836855106 -0.8670891270215122
C 3.395883135364995 2.0015407497692106 -1.6169933674266286
H 0.6395804372589793 -0.808162221325801 0.608512165317423
H 0.5717213394780761 -0.09356166455822347 -0.9994807387692201
H 0.5911618568990957 0.9677773946130792 0.42999639292449
H 2.5913103672719298 -0.3453112859316844 1.8734712189816436
H 4.1962578291895944 -1.2441076746378639 -0.5381826665109919
H 3.7601096741788123 2.7570689175508627 -2.2778542960892607