13

C 1.8523159265051965 -1.3761612142860047 -1.23904300625752
C 2.694524797163375 -0.331760544882097 -0.5678342691833106
O 2.3475160565476947 0.7897177589501809 -0.309000001515032
O 3.91395426151335 -0.8225107821934861 -0.2683924682362709
C 4.784704219648633 0.06032647724890479 0.43070179127772684
C 4.6592058855050835 -0.07528484674814721 1.8721799017688845
C 4.578936687207674 -0.1798411342092438 3.0608274928878965
H 0.9367906722448 -0.92872891558561 -1.6038365387987774
H 1.6160955542176898 -2.16441086135675 -0.5177536702567289
H 2.408226897324402 -1.8374730470481555 -2.0564610485055344
H 4.580043965164475 1.0983558116130312 0.1319146958817417
H 5.798347085463469 -0.20822525397134362 0.11576886663095302
H 4.484947241027243 -0.2727651371074617 4.120222617427186