17

C 3.0881679234135544 0.14491706796220785 1.0237437481399951
O 2.2341260135655276 0.1938415312524599 -0.08164358040507787
C 2.8256008762141174 0.8073325220349111 -1.1768200397076634
C 1.905963644661761 1.4086930632997001 -2.1886918033966953
C 2.7516198213704883 2.297587671707119 -1.3271550392376055
O 3.7806455149890534 2.98117389381045 -1.950303289589993
C 4.809790039671622 3.3286202039989803 -1.055902466120168
H 2.5376651578801406 -0.34523684189279696 1.833579771359959
H 3.393169644062114 1.1450413653298 1.3482924595510528
H 3.9919707466218157 -0.4376520983996782 0.817404993141387
H 3.7216287781646558 0.32050007923792057 -1.5522025014506127
H 0.8519626735214139 1.3769657738424106 -1.9799354637858582
H 2.1886908009339074 1.3193618242796696 -3.2294737550600208
H 2.244394329102691 2.8413138866962138 -0.5345891033386312
H 5.581907452558741 3.844260210417016 -1.6321720676681837
H 5.253811670249656 2.4385790856489296 -0.587460806194652
H 4.4410594866330175 3.9958660460504154 -0.2652354837647054