17

C 1.57774046551614 0.08841369877645493 1.0192952860199593
O 1.7264837520414176 -0.5188648937915933 -0.24757050461853036
C 2.8952396425722444 -1.2480628215470146 -0.36957353518791314
C 2.9744526296029563 -2.591054739143123 0.25447687236241323
C 2.813566762213301 -2.4418557032262433 -1.2468567295785187
O 4.056684972930463 -0.49828916171610427 -0.34585504314519533
C 4.193073606470616 0.34254853212802144 -1.4783726032379212
H 0.6315699249304828 0.6214469495761118 0.9971455487996889
H 2.396159020641593 0.7948466232763096 1.2227675654057646
H 1.5535648065354832 -0.6620554917318952 1.8113871280781733
H 2.121667775616011 -2.9389306139747005 0.8139030207619705
H 3.9408108036687484 -2.914289609154342 0.6296608668310071
H 1.8580455145695536 -2.6961847700242196 -1.6804431550085113
H 3.6757508282829447 -2.668521350330887 -1.8647371136572948
H 5.139978753448896 0.8722427557676677 -1.3497721571626302
H 3.3752300458300404 1.0650205630031924 -1.5406862991816077
H 4.225957280708316 -0.23668952142981675 -2.40047644677268