19

C 2.6135144078324655 0.5819802697171311 -0.9326546655888612
O 2.156261814384655 -0.21759153008402682 0.11942675288174161
C 2.9021794404145886 -1.3894666495948733 0.2984385336968776
C 2.4543514798762676 -2.2651585035875828 1.4585236841057174
C 2.7911744985648257 -3.485817103990166 0.5962013487381642
C 2.717314003401166 -2.5902977906255544 -0.6530437097187284
C 3.67646512371186 -2.8354966508831843 -1.791138315446303
H 2.016026319207994 1.4910211102831017 -0.9364698015197558
H 2.5065334617175603 0.08696942066884465 -1.9043032401677737
H 3.679059731775296 0.8528147147962161 -0.8022501749171402
H 3.9811694269616393 -1.1380196162620095 0.3750107376285349
H 1.3700400437146028 -2.158746248210721 1.600201015570625
H 2.9426937591648956 -2.1403989716721803 2.427323694581152
H 2.124383614027385 -4.353468449334683 0.6479564569470062
H 3.820049548302099 -3.8310614660192126 0.7729155344760583
H 1.682830219142314 -2.570724974116603 -1.0149971064590433
H 4.711765044501186 -2.8029947562617217 -1.4332881116149163
H 3.571236423067553 -2.091881643001732 -2.5870023205846633
H 3.5221345979363314 -3.8197427448389036 -2.2358201801035014