19

C 1.7176992720870725 0.3220525501514059 -1.2933430417256784
O 2.1214734323982865 -0.3429863971641428 -0.12678776931180624
C 3.0249932585896446 -1.3540641204327104 -0.3811907078370802
C 3.0720940786255153 -2.499351779882393 0.5784945970167583
C 2.1629847897345886 -2.5384429117794935 1.7691964801195565
C 2.5349489147837194 -2.704979257786911 -0.8187948738599383
C 3.2864430251841528 -3.5201557149567453 -1.8252977020455332
H 1.0095848088798223 1.099952537671214 -0.9948646198245622
H 1.2191554643520321 -0.3584374595944858 -1.9916394664344088
H 2.5687199486119874 0.7889401448779884 -1.8034354178469494
H 3.9733520043677046 -1.016844734856423 -0.8149608431675545
H 4.070204997241464 -2.9023589105757384 0.7518733550655121
H 2.6060362606083536 -2.0034709635214623 2.613216771332281
H 1.2061941760591632 -2.0739556661822256 1.5475308563395593
H 1.9811260400688075 -3.5670911990855925 2.079875404149332
H 1.4497000677725278 -2.781764685657545 -0.8605068521873303
H 4.36248094085379 -3.3484480782563124 -1.7447742497495755
H 2.989548498828154 -3.2741897063961214 -2.8528632185576726
H 3.111890888473931 -4.591445550531131 -1.6884566448632314