17

C 0.8115525711887568 0.0803438647014936 -0.07034501306263005
O 2.191128381386886 0.2201597065778224 -0.26739131859325127
C 2.7737455076324267 1.1083428727745042 0.6253144477112059
C 4.025928432341265 1.8076815448634118 0.1951597418048636
C 4.637744207753977 1.5559236358262085 -1.1585973734701285
C 2.731383017631589 2.5711558852744054 0.33300010861612633
O 2.5232699126589275 3.4296583786731865 1.405620756754794
H 0.44000340952594574 -0.6196972534674975 -0.8098364913208268
H 0.28997850784445167 1.0409260683806767 -0.18307026756177786
H 0.5850341538306176 -0.3082373197383536 0.9377423085844935
H 2.6858806809960436 0.8305004707030729 1.6676163741622092
H 4.731165460807424 1.9627574955253637 1.0048229046376873
H 5.286967906834458 0.6802220829608929 -1.1357594682852783
H 3.864920785789787 1.3700257279133607 -1.908192503830864
H 5.227094986441304 2.417243816322706 -1.4730403724162309
H 2.249528270263432 2.857583736147047 -0.6013612853463869
H 3.097280809712969 4.195695749019494 1.3001052905306127