17

C 1.282769576893553 0.42711907895509277 0.6237541066403405
O 2.454276307215039 0.13666393862174545 -0.10525122991134317
C 2.9877934425990684 1.141388406738051 -0.8348171599585816
C 3.8145342053009617 0.9546198137300993 -1.859946451898785
C 4.3761086101627695 2.256048693344669 -2.3632016619788443
C 3.4442109421708498 3.303125513836307 -1.7048813989891702
C 2.8250560081263862 2.6055673665651002 -0.4892580628458523
H 1.0182486478743442 -0.492859458581598 1.144185437263459
H 0.4502883154739668 0.7050755303008134 -0.0417996762326793
H 1.430260880715561 1.21571842521848 1.3603758500917038
H 4.1144895102490535 -0.014183081010610582 -2.230737038573814
H 4.373524728218875 2.338604123862418 -3.4535731877560814
H 5.417663198819114 2.391360948553456 -2.0451464431338398
H 2.650456153272717 3.563263754063284 -2.406104869614819
H 3.9723816575074777 4.21912783943091 -1.4377092500310067
H 1.7876213512527075 2.9042250709102797 -0.3297447768500934
H 3.368427821016929 2.826215298559137 0.44021580512560476