15

C 3.056073926077403 -1.3025862590899544 0.16779203820989755
O 2.5901989031609975 0.028763763286662306 0.1095325991370469
C 3.0885202557972975 0.8261769294390618 -0.855210306094252
C 2.743469091224563 2.1084377306204405 -1.036548854908311
C 3.5021795258894994 2.6094994232287525 -2.1768730399487697
C 4.291754143408716 1.6524630665728886 -2.684078078617995
C 4.102663472891687 0.404270236326465 -1.8763233941245843
H 2.5406165174554274 -1.7698248163933896 0.9983368542290897
H 4.1297738810184645 -1.3396384513600839 0.35014826101112057
H 2.8287579091484796 -1.8446563835807948 -0.7531993885757059
H 2.0393872267540574 2.668481782224716 -0.45028874516837175
H 3.4307889286887567 3.6210629494132216 -2.5502676839759486
H 4.969365557550478 1.7290898064583387 -3.5237197099270965
H 5.0342405126330645 0.06963675761271845 -1.4126754494227856
H 3.7442193126481342 -0.43515792300211126 -2.4899753315751827