13

C 1.0864257158429684 -0.026847191517745644 0.37943795935255564
O 2.501751157531654 0.10295323172239859 0.314493490500855
C 3.2164796335411614 -1.0094626673712876 0.28840368314742015
C 4.556207959466752 -1.191734389775557 0.23872143701293577
C 4.745628237903435 -2.608478757356963 0.23599286596973074
C 3.520400689008174 -3.1652891827013687 0.2859896868586677
O 2.5664462628316445 -2.1882166725373544 0.3302415562231875
H 0.6992507443984693 0.9829032961686396 0.38673424113590327
H 0.7784330856077369 -0.5566737855825127 1.2882876117203101
H 0.7030174878624713 -0.5643252935906725 -0.49927371267734066
H 5.303241608895792 -0.41394997668043465 0.20382655434267882
H 5.692766165735864 -3.1281806025726553 0.1960418320409841
H 3.1655486846244276 -4.176730119937237 0.31144377406093005