13

C 3.0583374531395235 -1.2471275619743025 0.5428431320287919
O 2.3540537158784036 -0.061729786034465835 0.2610178697964237
C 3.099626137888927 1.0593002314324098 0.16321160468961568
C 2.594455842490749 2.29781940930776 -0.09513398678912738
O 3.602518665637435 3.2057812424790546 -0.12721988857397573
C 4.743414778304008 2.541456618343675 0.11934999640342478
C 4.508081467902892 1.2175972500510737 0.3082729669674797
H 2.320971556834206 -2.045370314085108 0.584560414597381
H 3.5735472620445035 -1.1855743564789896 1.5050855701453758
H 3.7850695805763324 -1.4746056059543302 -0.24644911604862313
H 1.5979702968700105 2.664520052150185 -0.28020311998487424
H 5.653761837006775 3.1304449799195644 0.12546096668969103
H 5.2483147203773735 0.46522867692972947 0.5203273955001328