17

C 2.398596230816821 0.35644582224486404 -0.995747833203204
O 2.1215160887774287 -0.5138763329034275 0.06815241096801397
C 3.2380513380114784 -1.2752194317901613 0.48859744154493767
C 2.864016535586315 -1.9667146002242841 1.787928618631352
C 2.185213494880065 -3.2279824535575248 1.2748894584993282
O 2.9566283136894844 -3.616938413844077 0.14459415664234618
C 3.5314692381277473 -2.4576193860870426 -0.44219262669756676
H 1.489315184193723 0.9082589625489421 -1.2098660905039127
H 2.7001772295299773 -0.18302426377636202 -1.9086576889163525
H 3.192225208937082 1.065319084287914 -0.7375544562763232
H 4.104745852185357 -0.6092300030621216 0.5932797112324342
H 2.2358230223520454 -1.335738328836212 2.4064966699515717
H 3.7744188880672613 -2.2303431693054305 2.3361974799190977
H 1.1534063373278256 -3.0198058892846498 0.988135101809886
H 2.2034172289532687 -4.059617870192267 1.9875339599754713
H 3.1035531694768457 -2.288106134361303 -1.430443919930388
H 4.6060113160408385 -2.628405062435599 -0.5607881099757263