15

C 2.6621134622105944 1.1200786950537565 -0.7351666370450989
O 2.519868678276587 -0.0886133904464534 -0.02725812834647136
C 3.1722829709129607 -0.20021280578281309 1.146048104539311
C 3.492961244582568 -1.3311498278582692 1.7628830292779292
C 4.108755538288749 -1.002971499462957 3.0780580376648623
O 4.172678118259113 0.4188077421107607 3.122485099944109
C 3.542607460244004 0.9841193979524037 1.9971189976656198
H 2.0331813440436166 1.039758072971545 -1.6095144653905116
H 3.700383314442537 1.2747285994794482 -1.0579977259279751
H 2.3410075564603434 1.9773799950951951 -0.14273811560901134
H 3.326293474628702 -2.3288771849313035 1.3884944357231361
H 5.121602623903378 -1.4120016703006324 3.1927574926116913
H 3.510069925920498 -1.3720481812582226 3.9281149377397973
H 4.238113387747835 1.6647906734629416 1.4976010602038101
H 2.6631232483306175 1.5625767574841523 2.2945650173477907