17

C 1.330030207911321 0.42659965724722104 -0.5029522915455136
O 1.6045258240075135 -0.38266885562023345 0.6196671196933754
C 2.565549930432534 0.13587665091158932 1.4984492725319973
C 3.931697080502097 0.2926233307248082 0.8893473057385202
C 2.113476657720511 1.331681612634599 2.366915595718332
O 2.4046509054469807 0.6057766820051294 3.5632571370761905
C 2.554150101372268 -0.614696573260014 2.835096080024889
H 0.4729802907483316 -0.01960994027150601 -1.0123611519059563
H 2.1732280970933022 0.45173429299936957 -1.207799906753645
H 1.0786582193818808 1.4473823646583117 -0.21496579209747477
H 3.944596906060204 1.0467453908518947 0.10235312117271043
H 4.26273161651434 -0.6577810363067724 0.455578567196398
H 4.657753731289297 0.5867944104858509 1.651373226991546
H 1.0508309198665136 1.5608132718971095 2.273143872575429
H 2.6962628940237576 2.2524672088182713 2.2942284352694915
H 1.6747521802096106 -1.2690279832703482 2.9302650296134822
H 3.4601459923486626 -1.1548345291405744 3.1101154974973393