15

C 2.0157250410078493 -1.1055934535092755 0.6279206649083798
O 2.1246859045886914 0.12135071020240742 -0.04677914310422948
C 2.8228514875397015 1.083791168939606 0.6816369045140692
C 2.9122737859158545 2.444948165730075 -0.03638526830442013
C 2.4770688472074474 3.0884832699157645 1.269038798526644
O 2.5114316345664887 4.211316040811813 1.6903039850132393
C 2.089345182820366 1.753362176083864 1.88275947568982
H 1.4733180088960407 -1.7832003181651106 -0.015072127397854612
H 1.4798614669081631 -0.9997068919055546 1.5761126045832303
H 3.005919198544808 -1.5248733925716702 0.8436936587392183
H 3.8125198351563165 0.7036455400225535 0.9765909303662871
H 2.1203528530321636 2.520561005175189 -0.7933678985570619
H 3.8545762736328313 2.7601085618758012 -0.4636476825430043
H 1.0122083819669703 1.5897828914928267 1.8157588419729584
H 2.434478205824666 1.5641740479241462 2.9021634562530965