17

C 2.0792020049046513 -1.1576021646177292 0.7841746887821894
O 2.1730457284514166 -0.032985797162941706 -0.04346821533461375
C 2.862463710309971 1.0162635703344207 0.5621682320473809
C 2.972055390533669 2.2775932523943734 -0.3029564360302844
C 2.727463136155781 3.1099636163773017 0.9718204031351803
O 3.9117718119331273 3.4870809263366587 1.6464036081600473
C 2.152609202261637 1.8556656173440544 1.641573014702659
H 1.5386161014103523 -1.9291866737172576 0.23406411669469318
H 1.5259922533954544 -0.9444535118812071 1.71182536786901
H 3.0699487450083596 -1.544481848238626 1.061743160331556
H 3.8443140508098774 0.6751181109405261 0.9110480000841582
H 2.120836218363412 2.3351606418523656 -0.9812431236069755
H 3.889504830087199 2.4507905240799044 -0.8492758500786713
H 2.0548647094659906 3.967278275436169 0.876734754191402
H 4.370538411526348 4.141743509151447 1.1080603359377468
H 1.0681865985015346 1.8032699611860175 1.5150733666854455
H 2.4177370582046267 1.7134462450750696 2.69507263891758