15

C 1.8564999860376035 0.5177591182670267 1.50408191815527
O 2.087789716838001 -0.26330032747643156 0.36091793311298526
C 2.919280735000777 -1.371309426539879 0.5994375070782024
O 3.495823408924655 -1.7638973404311271 -0.608400309858605
C 2.974489006369553 -3.006249062608969 -1.0391296309177998
C 2.158840154610077 -3.4910862806059977 0.10115782783902037
C 2.149059240191275 -2.5745453072858577 1.0630683589515253
H 1.2982096367047864 1.3986081699507737 1.1924867813921165
H 2.795331935416568 0.8372203819289952 1.974489728243729
H 1.2596916124967348 -0.01568612354245343 2.2699076491417913
H 3.718976556491651 -1.0572614285229456 1.2970874968236505
H 3.818765160215372 -3.6692815399081304 -1.2746470688247389
H 2.3771640087530552 -2.8734626463592656 -1.9481236744050388
H 1.6427642544697665 -4.4428654508563 0.10862206231602556
H 1.6276334668122738 -2.63278540665842 2.0093023815153486