19

C 1.5226581995170054 -0.13828769890171275 -0.6291674748133135
O 2.922648413789923 -0.062425450322244516 -0.5756668812737669
C 3.470711798372716 0.43528628357416077 -1.773142159066325
C 4.957314054012483 0.4433766150786644 -1.6756388066328365
C 5.743560906339226 1.4308205334042803 -2.4949101567376055
C 5.655722029851792 1.587130566617909 -0.9978402473534433
C 6.865369592015408 1.340139279015672 -0.14378515800725664
H 1.1825193387225998 -0.527435070572526 0.33008474110664987
H 1.191514810651272 -0.8170863478002692 -1.4348656617654323
H 1.0605797647755952 0.8417942391318185 -0.8020493687069917
H 3.1050540571825733 1.44848354243221 -1.9714315520202774
H 3.146974380168676 -0.20177477155030563 -2.620412728569876
H 5.415213573703269 -0.5361701734464487 -1.5391400139158866
H 5.191242390065921 2.125174912471105 -3.1161042158557115
H 6.688871055375528 1.1066807450149079 -2.910168703473322
H 5.004056887497698 2.385533645290406 -0.6504518861340035
H 7.468358886217708 0.5292506368104453 -0.5501827149358087
H 6.572978380023516 1.0597646813762611 0.8734057349260518
H 7.500297790295608 2.231288733685746 -0.08586802595450706