17

C 1.9288401174768304 0.7496066018477746 1.7195306650759359
O 3.147929509110689 0.5954259223207259 1.0343539970388989
C 3.7311973480042195 -0.666474512951691 1.2684387566037554
C 4.988644127145134 -0.7892941888168618 0.4827302617664894
C 6.265380969056919 -0.14974356975624378 0.976910147405016
C 6.0964327007541455 -1.6395179408386724 0.9744090475033689
O 6.755081845071457 -2.415678346699034 0.025627479291090466
H 1.5477008011439817 1.7364441360746474 1.476252235716637
H 2.0667027569610235 0.6710235973485598 2.808727659518854
H 1.1959891773435327 -0.002940839453352177 1.4165329109044131
H 3.02683853832423 -1.4640513326349112 0.9915591351629676
H 3.943761828405618 -0.78296106545108 2.347456874835735
H 4.861301662019457 -0.7916918931994015 -0.5940988724508981
H 6.240252362775373 0.3713418377267075 1.9172961667619677
H 6.91929751122674 0.26570623525712445 0.22479843961878263
H 5.964281307357626 -2.1302703808054764 1.9363843447128102
H 7.694557205848833 -2.4357067950350926 0.25334650998872515