17

C 1.4537716648560488 1.2361167866995626 -0.11131414130250557
O 2.754802182810352 1.1811942308461356 -0.6214636795744759
C 3.7302268347813388 1.3264400162547898 0.3742653947834857
C 5.090550746858693 1.2339004341409319 -0.2558883719249807
C 6.251127371435652 1.132332981863079 0.7358352589995046
O 6.51830772564845 -0.22671983932516301 0.3628890083478643
C 5.530835153721751 -0.1739120275358947 -0.6761844649987454
H 0.7619839673153377 1.1123562559681208 -0.9489520539365007
H 1.243062546118649 2.1966397694190665 0.3819313696626527
H 1.2758967907100127 0.4279483490391395 0.6175477522710627
H 3.6189778300972426 0.5478243998827231 1.1364833385145183
H 3.617785355712418 2.303734525915706 0.8799805926983888
H 5.204054767782177 1.9935373406209427 -1.029904829265043
H 5.992478831844105 1.227667602515602 1.7935000145525988
H 7.107331108817723 1.778926973538877 0.5129567024710546
H 4.770094381783217 -0.9593003367104386 -0.5748509214039957
H 5.983945629170461 -0.24034853808350257 -1.6719155383904423