17

C 3.396799392092584 -0.28737842508151534 -1.2152858802067277
O 2.6347850619568005 -0.38507298746033797 -0.03905414012518187
C 3.271056806920576 -0.07523973982167097 1.115348675966941
C 4.537207121287753 0.31658445716964173 1.27778632231445
C 5.0995961076492575 0.6255737946408695 2.6039350055498844
C 6.536002410401962 0.3002094027948569 2.9099474380717303
C 6.112671378826907 1.7232500177129606 2.7522629703342916
H 2.734220903826291 -0.5742132926836241 -2.037236422149467
H 4.255881024211597 -0.9678367030079789 -1.1909232591527632
H 3.7582286830798366 0.7337535325387238 -1.3725912637293953
H 2.5997305560257793 -0.18136260243858596 1.9515493140985234
H 5.201215381887679 0.41601705646645576 0.42658615689412277
H 4.412984495208268 0.51333275880534 3.4342314932348654
H 7.125881995957437 -0.15150287356523479 2.109000630109974
H 6.778013658362937 -0.06583857134419183 3.8983148837667208
H 6.41500546519417 2.248345332160352 1.849996440851712
H 6.065599710655647 2.3436263397761126 3.636314574319917