17

C 2.417557749505227 0.8414752752290228 -0.20818990633938564
O 3.747453183140098 0.3677943604064723 -0.09676759003998657
C 3.901560488736322 -0.749737561949333 0.6352850630698084
C 5.090253890203823 -1.3279044513151117 0.8362047074930067
C 6.357290264438539 -0.7739472870293354 0.27776797846845896
C 5.122682217266748 -2.538322038499244 1.640591929853985
C 6.212975396125497 -3.2395182515447813 1.9459879089619285
H 2.4476096258173485 1.7403972608045277 -0.8126127145931481
H 1.9941954784031302 1.0850189654311364 0.7772950665372421
H 1.7769303716098772 0.0946596407381451 -0.6945563842118709
H 2.9863432316214564 -1.1769491578192592 1.0548853863350909
H 6.159054866639237 0.13504339298317042 -0.2964215933155769
H 6.84485812702413 -1.4956309961071304 -0.3778891298974153
H 7.065345010236317 -0.5292290207523095 1.0688930432339308
H 4.164484822379036 -2.877555749381395 2.0165718518650735
H 7.1979607749206025 -2.958047764002808 1.605226659667016
H 6.1422789730042595 -4.1336344747061835 2.552802819146077