17

C 3.527625385226921 1.02260018253463 -0.7357183234424641
O 2.6467713872233767 0.16174044698650392 -0.07898359464472315
C 3.1939598147854302 -0.9070050438208362 0.5364568770332913
C 4.479683193823474 -1.2556811431556327 0.6082920217567441
C 4.93316096809454 -2.4920533209678055 1.3275020278064167
C 5.611500746719809 -3.4667391912447707 0.40753524713364675
C 6.860770208887482 -3.872092368074901 0.5198712426776597
H 2.9243125512856767 1.8159476842740023 -1.1703183005876496
H 4.071912851545705 0.49991237967406804 -1.5343127682277262
H 4.251288743162204 1.461444912683285 -0.04059881517647956
H 2.4133129722193964 -1.5048361838521054 1.0145718600140434
H 5.242157881718582 -0.6570680464413758 0.12721121317162024
H 4.073659157345001 -2.9762813575140847 1.7926965779805777
H 5.63374317740136 -2.2245427367754065 2.1349900020796855
H 4.994857725058827 -3.8267773401701057 -0.4252296604277898
H 7.5046417643724705 -3.528860142390286 1.3249539016699134
H 7.294743530895598 -4.581138137929575 -0.1813890315301355