15

C 3.4115073761835744 0.22423141422315607 1.2764055604833517
O 2.607563136556923 0.20664017722896458 0.118965399386331
C 3.226121616088573 0.4615101718455239 -1.0405288533318169
C 4.505306617251035 0.7448324644097766 -1.2575005381181446
C 5.034592729179862 1.0142083161066568 -2.6328762840035247
C 6.1026455417514445 0.09521174904565653 -3.0285492613578304
C 6.9760641317743355 -0.6618411808109794 -3.332833747426277
H 2.7583989128870336 -0.0032868397595821465 2.114035477207098
H 3.8700326098484226 1.208615606289324 1.4305102770618214
H 4.206557565899682 -0.5309453331746766 1.2126534165639034
H 2.5067082053264382 0.4154833224335409 -1.8599292001412924
H 5.215770173557997 0.775795411094931 -0.43470551640432753
H 5.435799410539167 2.0327341633268916 -2.6930916514695515
H 4.224583882572204 0.9605030844941297 -3.361468197121191
H 7.7547023891080835 -1.335096228017882 -3.6152637400003034