15

C 2.9885290055001237 0.8185758109543796 0.8805608583118595
O 2.2692807964808845 0.09953644677075386 -0.10306546769627559
C 2.9624218012018204 -0.6280983403906061 -1.0178518423612006
C 2.295482402042585 -1.3380052440684467 -1.9240009334333228
C 4.393148024930052 -0.6001513404263111 -0.9732756727372306
C 5.589101809980196 -0.5791901291798849 -0.940124887814516
C 7.038594318250038 -0.5736447612979494 -0.9036164218039289
H 2.2396175085341725 1.3174082433947376 1.4842324209095685
H 3.6567694547134386 1.5673517583087773 0.4294366623850228
H 3.5831805797466774 0.14812753811820883 1.5103704363269261
H 1.212666744961272 -1.345330322369066 -1.929052921557403
H 2.8317213233729692 -1.9257522150076427 -2.655539911744578
H 7.451215369270736 -0.21285787207609205 -1.8582636767255183
H 7.440879652730387 -1.5722299867281708 -0.7257095132003485
H 7.406641849531658 0.0856518604661455 -0.10745614262239325