15

C 1.5255273716796673 -0.34354293973238775 0.16641827722049907
O 2.8857302697401863 -0.4921746525946139 -0.18030439350677838
C 3.151072412190491 -1.0263702795293363 -1.389447831050036
C 2.265222088371134 -1.389419663392704 -2.3109172897287746
C 4.6374392784743375 -1.1548957075929274 -1.5742748625248146
C 5.263133176213521 -2.1015823552945796 -0.6654067353082952
C 5.776048802084475 -2.896656484905311 0.08094144228679435
H 1.5140695743529136 0.07754208585270785 1.1712849532932703
H 1.0161581339007544 -1.3060622016527181 0.1586293435531463
H 1.0168614396028912 0.3358930755264354 -0.5202816738892837
H 1.193999174559133 -1.2819364427144322 -2.163939155201905
H 2.603983864771468 -1.8094368795540712 -3.2398218655859807
H 5.104339269761043 -0.17101811797092215 -1.432883828427555
H 4.84376906052577 -1.460982863948455 -2.614066988232401
H 6.228156365173503 -3.59106963944916 0.7424978332582867