15

C 2.9262748613201124 -1.1608568149070326 0.37151886545720825
O 2.207868513709542 0.044049197857782045 0.21134975811913162
C 2.912486821410848 1.199708303769538 0.05258829940526638
C 2.2648313163578826 2.3679461123355607 -0.10147657050137504
C 0.7843827337966723 2.5117611592379894 -0.1288071804937993
C 4.340837026620953 1.1449898692423763 0.059031999362270944
C 5.544440976092589 1.0965683242200424 0.06727713013039417
H 2.17612900861127 -1.9428781098109122 0.4842296835099751
H 3.560704282277168 -1.1316085709693708 1.2720082121726255
H 3.563182701985944 -1.375001838238765 -0.49142458072918843
H 2.8857605932948163 3.241879958515137 -0.2229577825943739
H 0.2849543177863372 1.554696407121393 0.003134897184103115
H 0.4524430149572726 2.952436460827676 -1.0726569136586865
H 0.4547754846962523 3.188227635682031 0.669192832657778
H 6.605657387678957 1.065743343378778 0.07446091563732722