15

C 2.3226823063023336 0.9866604438772492 0.3390931281183574
O 2.1147145913739602 0.43099673681657036 -0.9351904824683508
C 2.683334386307005 -0.8580589461121024 -1.0782137431336687
C 2.249759685967027 -1.3961394153321618 -2.4132409768345178
C 1.598804230312666 -2.5370408897155317 -2.565153705145049
C 4.149024248905438 -0.8273868491756914 -0.9977361831673377
C 5.349708039661375 -0.8018759447543242 -0.931780560919419
H 1.8183987678004323 1.959549671770341 0.34502997913573985
H 3.3894988399901895 1.14335777522954 0.5390439022695821
H 1.89629297202171 0.359431921192905 1.1301289717902194
H 2.3114193475694345 -1.5192098662267197 -0.2915669715042008
H 2.5040579101070097 -0.7791722446447494 -3.2672927704936563
H 1.3342598064865037 -3.1619246316386262 -1.7091668767532162
H 1.3064233492706983 -2.9037990726885345 -3.5375544464057787
H 6.409524483372659 -0.785914795808449 -0.8825442040453741