17

C 3.382598543865715 -0.3097570173862189 0.08663224077944821
O 2.38994114878533 0.3458793541652359 -0.6527969424486311
C 2.76532983509633 1.1788086642401827 -1.6589639252760915
C 1.5481149575625586 1.7604076657383276 -2.2983900816573204
C 4.043206834065698 1.408240727007668 -1.9970050772804087
C 4.491508840948007 2.2914641932654924 -3.0544631856974744
C 5.763231069503685 2.5091281599925903 -3.3688046520725465
H 2.8668887683636726 -0.9170440105983162 0.8305585879394028
H 4.037863233475055 0.39828177526132574 0.5991096030210418
H 3.9886854745409233 -0.9607977853639702 -0.5524754440320301
H 0.9185803508605715 0.9561629050804007 -2.6855382121051017
H 1.7986947845073933 2.4281004498255756 -3.110071882837462
H 0.9660330966832987 2.303775041099675 -1.5472762941353573
H 4.8319651959297705 0.9156150095888762 -1.436828163277934
H 3.7311038288268894 2.807050383680275 -3.627522579477581
H 6.573033324926099 2.0172060384171275 -2.8249818460809806
H 6.045442469437608 3.172217870543686 -4.174630706990428