15

C 3.0308679424771907 0.00085060950994118 1.3764946432594676
O 2.301453609425677 -0.05888335539437714 0.1703341278133038
C 2.9838217628959622 -0.0961177383896996 -0.979522422566978
C 2.0647453894626495 -0.16599961920558393 -2.1481846136785507
C 4.332806320153571 -0.07221472276428324 -1.065146473335204
C 5.035982943027348 -0.11806340738031436 -2.2945435665787635
C 5.676083805511581 -0.1501746552699152 -3.3102067794369514
H 2.296040997712606 0.030731204917242592 2.1734577321896875
H 3.6404420255869105 0.9085310240776547 1.4207584555484103
H 3.67690736890907 -0.8749866993297171 1.4979973790651342
H 1.4294753563018965 -1.0511737935422265 -2.0681644000594703
H 2.626658385189298 -0.19222375328853372 -3.083575146884358
H 1.404937319736305 0.7066350581876837 -2.1451970684393546
H 4.93623548870766 -0.027729767426224263 -0.17175016929531858
H 6.2248825469089795 -0.1699084078417418 -4.225514321542398