19

C 4.5782201407767 2.5610475434817497 0.2939543150594778
O 3.661810992244835 2.363842499221222 -0.7574914254355063
C 3.8959503674763813 1.1823426781177044 -1.4938780053054934
C 2.6704760660409463 0.9703933330759434 -2.3661582215992985
C 5.177932795532482 1.2688514047236963 -2.2951920432075057
C 5.3116278634291785 2.4152946646310767 -3.2496880434560826
C 6.129603383978248 0.3490367829487455 -2.1483854566304226
H 4.2809614889888925 3.4771387522752315 0.8136856850248413
H 5.612047870209878 2.684851177673666 -0.06511177557198984
H 4.556651487393739 1.7254436348827993 0.9997097535514804
H 3.9942866161204353 0.3391789529436866 -0.7917270815076055
H 2.5133119587282797 1.8244521083133691 -3.0217727071364346
H 1.787212071910417 0.8663803913768663 -1.7301406792835814
H 2.783331789603904 0.07097711595238176 -2.9707679811892707
H 5.118222096419994 3.3680370578699486 -2.728761776243104
H 4.578751300048171 2.3443682933126837 -4.0564680348586855
H 6.297220339937614 2.449410413875337 -3.6901390819865436
H 6.014298152544371 -0.4705196709549537 -1.4399385885893667
H 7.039122862663917 0.3819410565399016 -2.728587558574219