19

C 2.6639439328043832 -0.5123846741637025 -1.156898469542619
O 2.477903423426801 -0.060142501224455615 0.15420847274807098
C 2.824945238300183 1.293594534326633 0.37416469831733673
C 2.165336140636527 1.7100054972169925 1.6714995028936837
C 4.337959194784987 1.5096878642457119 0.3801408732793859
C 5.049345224663355 0.7456460061550523 1.4441062268742217
C 5.882184430589407 1.2645868682663968 2.333324458296394
H 2.246708796476998 -1.5201473127128022 -1.2207887495561474
H 3.7145869632284576 -0.5478985451094219 -1.445744559355672
H 2.126276925134686 0.129534597742329 -1.8780055117497414
H 2.4063766073148956 1.8962588648054088 -0.45515331428134304
H 2.5432309767652215 1.1123480640724372 2.502436811561203
H 1.082134497919839 1.5809930088467656 1.6046209408780259
H 2.3767717085812907 2.76510279522635 1.8828736398224077
H 4.536885620122135 2.5835596040881654 0.4889728166150864
H 4.740077407482306 1.2258990224915862 -0.5957937101041442
H 4.856265971458231 -0.32700838538724897 1.467175150854907
H 6.096623203921317 2.329919684994805 2.3511591693517504
H 6.380538748142909 0.6491953670590587 3.0784034294016873