19

C 0.9974524198734706 -1.2520022148700667 -1.5916554433291195
O 2.389880689932716 -1.244197527930493 -1.5220328154523233
C 2.945290081766013 -0.09259464779933882 -2.1245106623994063
C 4.419878719441901 -0.1133584477450481 -1.9189385256500875
C 5.374995285156996 0.07116447214101902 -2.836380408772305
C 5.133393401334488 0.30271748782223423 -4.297593714833854
C 6.823123727314358 0.04188841141475055 -2.441457886520554
H 0.6512417246765676 -2.1649659239185124 -1.1013353056548165
H 0.6371956245788163 -1.2389191947752713 -2.6256999404769177
H 0.566545010957608 -0.38825916341582795 -1.0725732514690969
H 2.513321691893366 0.8007349093370086 -1.647020984957047
H 2.673938343626272 -0.053082831155133174 -3.1870386725245172
H 4.724613878079554 -0.2809516080657621 -0.8936540358738041
H 4.0902019222062505 0.21944542900790354 -4.5824072723706175
H 5.713504718545184 -0.4056896677840355 -4.896053464348028
H 5.479029184812928 1.3016026109225882 -4.5825606402187145
H 6.945959268268362 -0.1283115128352717 -1.3763334194958523
H 7.305825869227294 0.9906658796246715 -2.7009162292160833
H 7.3627252234911245 -0.7326745212917066 -2.985780331383969