15

C 0.9739722560028294 0.2760262213582757 0.01750144344707341
O 2.3663377333465063 0.3024477122982509 -0.10019108299115415
C 2.9770180424963897 0.9440579251877188 0.980668115151769
C 4.470255196466865 0.9558406162694514 0.8216859486031389
C 5.0892559892524325 0.4325220252776804 -0.22757543297671526
C 5.1682534766436445 1.5946036742186787 1.8860673072396157
C 5.718434942763856 2.137024337926384 2.8110855484425996
H 0.5777045449462125 -0.23971679074087682 -0.8680186165027438
H 0.5488368549751679 1.2832427917300882 0.06623427561146496
H 0.6575617391994554 -0.27495966949152245 0.9135262648878518
H 2.722497312467909 0.42823806118099494 1.9306205171765378
H 2.617309581609732 1.9734579712146632 1.081428177186871
H 4.52238189955722 -0.04311977026543688 -1.0247662069037424
H 6.168280187836474 0.4614800674165099 -0.30309957510400515
H 6.224972727594368 2.613362354487773 3.618898616655768