19

C 2.1578216137695336 -0.6112737030383991 1.0388821540677893
O 3.5203037098053374 -0.37577020107403697 1.1903378319165774
C 3.9103122424905847 0.8897567327938776 0.6991388471543151
C 5.395373311408245 1.0465724863561074 0.8010711191489182
C 6.19620221016253 1.88542490313498e-05 0.10363872330961746
C 5.89750654134111 2.0821915918786504 1.4709620563346282
C 7.327874373937793 2.451786037962142 1.6639603973189585
H 1.944591892497697 -1.598234488998583 1.4384093555143884
H 1.854741426525022 -0.5803456156565305 -0.020885806632422912
H 1.5559077068960931 0.12520215910629373 1.5924356972251297
H 3.4037977633181704 1.6913821162278102 1.2470550760566164
H 3.6062646369278655 0.9632273231530633 -0.3637356647312511
H 5.950319954403463 -0.018721715457251667 -0.9687385758957726
H 5.939675032876467 -0.9920138945250396 0.4937944283992564
H 7.269653862731176 0.13884486148287123 0.19936786220552277
H 5.178180796404746 2.752578186453731 1.9523473398258464
H 8.011855149141853 1.7664055334888458 1.1642023240958006
H 7.5901440769321615 2.4739088536414733 2.720723321271878
H 7.517279204271899 3.46410160642059 1.2738360338650627