21

C 1.892577854191488 -0.5344320521248233 2.4603657571478146
O 3.2891413042552258 -0.5644730749885579 2.331581215736165
C 3.704121567440323 -0.9760497356380261 1.058705725012112
C 5.226045216453987 -0.9950085429973959 0.9600823354323981
C 5.596328636914332 -1.4520307584168803 -0.44201991283086217
C 5.7732496530635276 0.40691944903689337 1.2155132617913047
C 5.790222286415544 -1.967421972318804 1.994030247159145
H 1.6614549957037759 -0.20195085428425438 3.4737444353288103
H 1.4522316405113713 -1.5229603159717051 2.2940089086057758
H 1.435629862631268 0.17201874072054507 1.741468636987089
H 3.294935539703999 -0.2984356693699698 0.28725822995774886
H 3.3135919465264845 -1.9803021537380145 0.836562193032765
H 5.199273406089005 -0.7718658930768549 -1.2063488740024322
H 5.220696071392477 -2.4472286925235407 -0.6552801851317968
H 6.685978139796354 -1.4710724955617889 -0.5564753845927721
H 5.385223198408859 1.1216379142354056 0.47378164833175634
H 6.862898547890415 0.41331547361268695 1.141636665087645
H 5.490378274351591 0.7714975894236709 2.2066043230080705
H 5.423445317404116 -2.9821002150888978 1.8164492405521033
H 5.5114599708637355 -1.6729324324568426 3.0079404516354438
H 6.8819743462624965 -1.996772149337979 1.9344104988944901