17

C 0.9960749330477139 0.22019805815123314 0.3285979676745822
O 2.3697802152754814 0.0231586472485801 0.16852545031263003
C 2.8330022161594517 -1.1107486858916857 0.8409037274170843
C 4.336656958181351 -1.2375535230513726 0.615982275771077
C 5.097067221609765 -0.04214903273316508 1.1782467599420343
C 4.805405527587063 -2.4870136028399172 1.192904542304806
C 5.197092205928434 -3.512694246480163 1.6762929788244567
H 0.724694179750311 1.1168510525291924 -0.2343407146863692
H 0.7296045419583145 0.37371149426889405 1.3801887067520204
H 0.4116914357835125 -0.6293408169594287 -0.05596193998894684
H 2.326617030678946 -2.0193083721563467 0.48037676167160404
H 2.626299442611554 -1.0306445684261918 1.9246534383868816
H 4.48693826079189 -1.2805532569266824 -0.4703907908454223
H 4.9741045234627945 0.02553347789661146 2.2655273414463455
H 4.7163765064951475 0.8812028085128768 0.727094128636005
H 6.162108828591978 -0.12904150117193422 0.9592827699762372
H 5.544015179316381 -4.42964521954973 2.112482257785626