21

C 1.7516377301498485 0.21651802135808457 -0.8426977008627274
O 3.026622749803396 0.2950989611886268 -0.2771093163865426
C 2.9852338652961357 0.4021676529239113 1.124176752502377
C 4.407863586180724 0.45804090234930733 1.6472874836967952
C 4.514055620286654 0.7344513188056749 3.142570506640124
C 3.8756965123766673 -0.3662540038029472 3.991200432211374
C 5.9748536044484615 0.9266124881696891 3.536144953159069
H 1.8700081376785702 0.13612091374645804 -1.925549560692028
H 1.1540053559544776 1.111407946929931 -0.6230957516013097
H 1.1958185218464354 -0.6589797041011146 -0.4798967924548449
H 2.4404925879563164 -0.4528883719326095 1.551242121398084
H 2.4331638448145894 1.3180159332154897 1.4176891031809546
H 4.928717748307089 1.2394224903418798 1.093974925352948
H 4.912956665072984 -0.4822423674916545 1.4116409412571183
H 3.9852013599214784 1.6728646842209052 3.3516536743974465
H 4.349969915028242 -1.325106567423294 3.781688680639445
H 2.8084763834171422 -0.46173258515296794 3.7906122245920146
H 3.9974710745596584 -0.1510599060100338 5.053729814841083
H 6.549549460037203 0.014896155875903691 3.343461861449303
H 6.071263343595325 1.166169903967006 4.602019341363683
H 6.438676340192593 1.7364451287648621 2.961077152136764