17

C 1.0529960963609868 0.30164597558574563 -0.07435281073497987
O 2.439551074760544 0.14608800397904229 -0.08650738943631812
C 2.8366795925978225 -1.1684033903317455 -0.38506701205220095
C 4.353720784013729 -1.2267753044125307 -0.3625185320163607
C 4.848739609222237 -2.5563636060521424 -0.6725890212167545
C 5.249849136384606 -3.6546646351145653 -0.9195874791646702
C 5.736048924060887 -4.987044261264906 -1.2334615794587915
H 0.8346510566535035 1.3461856128435896 0.16562068131084492
H 0.5780012308419866 -0.34321891679050787 0.6790485728495702
H 0.6107073904091583 0.07025004360243406 -1.057401239967866
H 2.4560969048408285 -1.4637204706986493 -1.3760394015236845
H 2.418673964862043 -1.8772750964403717 0.3491000202138852
H 4.70171479653525 -0.9000710503574326 0.6232697382259893
H 4.742991693564054 -0.49760116458257503 -1.0841785634484793
H 6.415120386580184 -5.3454803878710155 -0.45655010440912147
H 6.275925615878096 -5.000154005778324 -2.1805545376734545
H 4.917691146364909 -5.707414222051484 -1.308965058289663