17

C 4.2005229875819055 -1.119796967630416 -0.28099045012751345
O 3.072961481742648 -0.3085457326270002 -0.0628767645152664
C 3.311912989724088 0.8969354339744133 0.4911493893544213
C 4.478156645594998 1.429160424564398 0.8701725347640863
C 4.586303794457354 2.7918469399667063 1.4484959283354908
C 5.553768350066625 3.6879220408054527 0.6949111954816963
O 6.878064788029758 3.1937333774631287 0.7072978519897994
H 3.8319919007817993 -2.03805024838267 -0.7380800579875597
H 4.712735007443659 -1.3513645087833965 0.6555812326041083
H 4.909935796103814 -0.6381021397617093 -0.9647189703196084
H 2.376355962733451 1.4419055699861962 0.6094263002855344
H 5.397561282847216 0.8817575820100387 0.7337874460634717
H 4.914870254073378 2.742021550449981 2.5027120685151796
H 3.5999001562681974 3.285024846058417 1.470104263218743
H 5.5205782435046045 4.713468806352256 1.112270307628007
H 5.266562984016506 3.7576875294761156 -0.35202721699759626
H 7.198739695503206 3.199197534004038 1.6101487239000003