17

C 4.1055285446807845 -1.9514010089551825 -0.8187917567932975
O 4.411607908930233 -0.7936745057496117 -0.06361178099421182
C 4.438801310903414 0.35629299032574 -0.7704531999882379
C 4.557750633458384 1.557533476011223 -0.19932542092850927
C 4.668339563053136 1.74679037990772 1.2734323917989738
C 4.603904305359337 2.7701263319705016 -1.0695691346064773
O 5.835437714338743 3.4652529069014304 -1.0400406497776176
H 4.153505652547045 -2.7989981657824363 -0.13910936584829894
H 4.817369955256435 -2.093695254912006 -1.6325189992086175
H 3.090921446836014 -1.8912762954621498 -1.2346043320828326
H 4.372389600133629 0.24870823297809366 -1.8519064882375584
H 5.666698240704999 2.0849316588097704 1.5711067675508086
H 4.479618627060546 0.814795931215618 1.8107254773907724
H 3.9478416959471274 2.491678683334585 1.6242239268486198
H 3.7854276069140123 3.4533509370912903 -0.7816883798127237
H 4.443549558987851 2.49707632714175 -2.1178492889844063
H 5.972811281919905 3.805622339478484 -0.15029312526671848