15

C 1.1812921475817304 0.06280382205149869 -0.11488613800641835
O 2.6013386108156538 0.010306362450460795 -0.04967856218518405
C 3.2279937156437706 1.158444858436012 -0.3062327650374694
C 4.565723418448509 1.2841296632886114 -0.29045074031470625
C 5.526807150229882 0.19040305577349212 0.010706867123587892
C 5.070204416436713 2.617957122046218 -0.5979811588646897
O 6.244013022405228 2.91338282396662 -0.6215320485425317
H 0.8293587976789535 -0.9388176563816979 0.11215481627678789
H 0.8471740872639836 0.3418789307169404 -1.118314851332235
H 0.7838842869555904 0.7682839774211092 0.6133128679057532
H 2.5987675255281655 2.0206337020131415 -0.5371672815619011
H 5.001091397662423 -0.7494101067903652 0.2260891112794332
H 6.141496512903577 0.44591291186320325 0.8785031568354535
H 6.213079152668373 0.0392141980265837 -0.8274799072188271
H 4.294997391564625 3.3749731989652583 -0.8065939439418126