17

C 1.1671644914470658 -0.03183738071665244 0.16149939789052561
O 2.538540928969438 0.08789158920143027 -0.09857444339510552
C 2.9117773993055183 0.741196807058715 -1.2239532204708663
C 2.0926156803879623 1.2529257432326097 -2.130038856686834
C 4.42363808804633 0.7991915182186587 -1.3053502573593188
C 5.0488202858663405 -0.5780006093006836 -1.2305677221759836
O 4.861785268627288 1.511230689110232 -2.436704472145323
H 1.0632107120881247 -0.5556920556496978 1.1033080944235805
H 0.6672970110404957 -0.6035087224544081 -0.6288762261495447
H 0.6870771176426315 0.9514154508687982 0.23450796233893853
H 1.0132821064268835 1.1935136429788136 -2.0527269548922575
H 2.5005872752804756 1.7934566560317178 -2.9689972386986176
H 4.767571769886429 1.3911468032703251 -0.4498249825582104
H 4.752803949218529 -1.0977627404336028 -0.3162826604174692
H 4.725498984673515 -1.1874196973456026 -2.0849461584690654
H 6.129505806217256 -0.49030724491188193 -1.2489544177303142
H 4.688023052198229 0.9683493209543514 -3.2174101607895915