15

C 1.1860628205303554 -0.387176279019689 -0.6619110866243744
O 2.5591640279092838 -0.4781791104561331 -0.3687717667401255
C 3.101496789564832 -1.717626245991774 -0.38088926287868036
C 2.4701958854782973 -2.853936322947026 -0.6729289803350901
C 4.541301349005334 -1.6413976159438248 0.00991968304645375
C 4.7239275901032505 -1.3477929604874945 1.4748144877078635
O 5.5741262178552455 -1.8396762480846813 2.153149503089134
H 0.9229083089930664 0.6685373278884665 -0.5886286075107556
H 0.5848089324947107 -0.9584686029796681 0.050585618620497624
H 0.9692291636402087 -0.7412249201653746 -1.6800122832244344
H 1.4204619261779654 -2.8922603776421507 -0.9442753290585615
H 3.01073801332108 -3.7808278933921278 -0.6393956948928141
H 5.021258461621601 -0.8195894293795368 -0.5440782706212658
H 5.075028775240948 -2.5612007517878363 -0.22875965719685437
H 4.009351242412345 -0.6124609902095594 1.899684686101983