17

C 2.8735933356362984 -0.36895882705283417 0.6158312516593738
O 2.244622907037809 0.48461868545382525 -0.3028550000623315
C 3.0049267921755956 1.1681507065056647 -1.1802132450606253
C 2.1197106889131754 1.9851075396155073 -2.0589062135386955
C 4.347969632262759 1.0835766458242675 -1.2384036963800171
C 5.233011763009818 1.8299683819145476 -2.171512603227406
O 6.086294127141982 2.7387377322596955 -1.4994345475926711
H 2.0835535819625473 -0.8275095587488025 1.216224074116097
H 3.5597521961553014 0.1768215065184375 1.2765806740658863
H 3.4374176425679703 -1.1585071934150517 0.10593977454888705
H 1.4863488338685347 1.3345484278500266 -2.656802167969581
H 2.690352195829602 2.638939767972042 -2.721394398770962
H 1.4703573831340342 2.604688736038116 -1.4392007292085105
H 4.867287432408577 0.450523828764868 -0.5241406911802898
H 4.6507687673552 2.3438471913994747 -2.951268523482521
H 5.907667683591158 1.1322467233456268 -2.6810300903757556
H 5.539621350639469 3.2547063190344487 -0.8956533649360959