15

C 2.8318109426982034 0.5215471165130965 0.04336051233929551
O 2.303409812916304 -0.5773024081443392 -0.6714688829746994
C 3.1540901367991094 -1.4332633659682 -1.2521478018277419
C 2.39710996591183 -2.519996102499735 -1.9553350243538632
C 4.498435614300097 -1.3071422494297917 -1.21531628385759
C 5.390533979493516 -2.2433947239532763 -1.8577843379226369
O 6.595428572984871 -2.1545576322550666 -1.84701372785018
H 1.9805180146369534 1.0693484490408498 0.43066938292623
H 3.419363934369395 1.1744003929466187 -0.6163328881127907
H 3.4669683845591015 0.18304828221928024 0.8717418918791132
H 1.3300958885604723 -2.3678833258395047 -1.8148895446238744
H 2.6653052469020952 -3.5006804057653818 -1.5489293170803242
H 2.614851518359098 -2.5335206757751596 -3.0161683763308895
H 4.975797169796283 -0.49082782408590236 -0.6934516587328985
H 4.905428188503804 -3.0825337682437874 -2.40619903819809