19

C 1.5107061950026743 0.06936363249649877 0.0626416782796756
O 2.825056100335635 0.5611606735513781 -0.021993095561238806
C 3.047553199012632 1.715392687032927 -0.8223214475913992
C 2.5549945357572312 1.5204346564570048 -2.2554081859214405
C 2.418674702871117 2.9502016868342036 -0.18844265780297464
C 4.568604879362101 1.8520263300004691 -0.7951734259881512
O 5.212028027396143 0.6987830405088585 -1.2624056950246987
H 1.5275835559310431 -0.7458752552959681 0.7925948507123106
H 1.1516939464982472 -0.3393929455667727 -0.8921868208041664
H 0.8036163190462251 0.8267038275678579 0.41056112715428966
H 1.4683556414390362 1.4008758103276795 -2.2914439234247803
H 3.0236209093410977 0.6387948294628703 -2.6952225056254675
H 2.8198310788841 2.388558253254834 -2.8609122299648684
H 1.3277373697247523 2.9178027631954375 -0.22640324052782362
H 2.727943608155824 3.853064345146045 -0.728057042581524
H 2.7361189056602746 3.0462927313218473 0.8472490168822057
H 4.871859206792584 2.086197121475164 0.2324728150494961
H 4.8780531029313945 2.683052578954208 -1.4303735133293425
H 4.829406799266078 -0.03738161213187137 -0.7854441402171161