17

C 2.704912308294938 -0.8314725946651748 -0.8141950143030151
O 2.4292604431166835 0.04810210916100545 0.2510871389775255
C 2.9678878949068506 -0.3315586308140635 1.5107309845050327
C 2.49963890645291 0.742985390586075 2.4850175841328865
C 2.548235886891397 -1.7143100361997203 1.962734716316549
C 4.488794616442677 -0.2008172577287034 1.439077138373344
O 5.270443246188462 -0.8978746632618533 2.009670054435707
H 2.4289650198186323 -0.31154046507122973 -1.728398604334607
H 2.1254340363045814 -1.7626943011535006 -0.7384577245305796
H 3.774686533877583 -1.0928950304410237 -0.8754957124188087
H 1.4020662279932488 0.7448335206723995 2.50937876916485
H 2.829326823619729 1.7284504788829715 2.1554342695020963
H 2.8854381493208026 0.5581891007931553 3.489751806853162
H 1.453618651571203 -1.770805781543226 2.0140340478870433
H 2.9547661537017254 -1.9203128568712813 2.958965156277029
H 2.9084773018827224 -2.492865637628361 1.3039151902417676
H 4.820544049967796 0.6461307781299186 0.7994722208626671