17

C 3.3126160149371975 -1.6610205563371194 -0.38655008112078915
O 3.087436081129793 -1.540430005905085 0.9904675524910531
C 3.1943290541009284 -0.2163528597273332 1.454354653598303
C 2.476215577788416 -0.12095845268388332 2.7903686628254487
C 4.646056103610952 0.24162070424714327 1.6389553038419198
C 5.6632894220819425 -0.8079944413311848 1.9845291591259375
O 4.921378318877646 1.4126126034094477 1.5450454517030021
H 3.2082825666137844 -2.713985655082492 -0.6392793956555559
H 4.322259654425046 -1.3310556345327291 -0.6859628307634564
H 2.5815680147361415 -1.0751896409592883 -0.9624517530020231
H 2.728833060301786 0.4888332477989569 0.7407704132550169
H 2.9226236847179834 -0.8114412578650348 3.5092925733667983
H 1.4244288931531204 -0.39543754032148276 2.6579819527132877
H 2.533967550349823 0.8899971300202 3.178835682392925
H 5.8438822473268175 -1.4457574032431766 1.1167452766051416
H 5.29557625692932 -1.4604948219246654 2.7719177315672083
H 6.59327380520619 -0.3253534836580788 2.281355851475861