17

C 0.8149777113013116 0.07040482069413298 2.0816768524058977
O 2.207775365919046 0.2355651310517302 2.0182924564785476
C 2.8638545110701523 -0.9184462531861505 1.5582840863393057
C 4.317978730785646 -0.6442339422128124 1.4366607425971465
C 5.279628171123291 -1.3935009697999232 1.949568978890453
C 6.736254954381731 -1.1260481269883378 1.7862216044110486
O 7.3897770863019305 -0.9988374253224008 3.0346349041761247
H 0.3915947088798506 1.0061155390300023 2.4366501473670295
H 0.5334937724108727 -0.7319506731774299 2.78502661179219
H 0.3880414540023425 -0.16505855886423385 1.098539804395448
H 2.449146661892421 -1.2179079453694903 0.5802752036366596
H 2.6926021017307527 -1.7605061955540884 2.2469271976774152
H 4.578979020553485 0.2442341312749975 0.8514665941973186
H 5.018962231853311 -2.2719554900945287 2.543741681616069
H 6.880351490249597 -0.22855814564563318 1.1615540475744244
H 7.230234534366704 -1.9598263229218453 1.2877831858899473
H 6.9426023755027915 -0.3113981985185513 3.527868427325379