15

C 1.2015437595889842 0.17130098612681804 0.04001524603167665
O 2.5931561857879593 0.0486541809097131 -0.011354498738272647
C 3.0094844079416583 -1.0157825925218666 -0.8208289991909731
C 4.48275299149811 -1.118052451494733 -0.7704951189070943
C 5.275456602013359 -1.4447128846819002 -1.7962514803876461
C 6.71873615149698 -1.564600595368653 -1.6196880958483961
O 7.48476813196502 -1.8651421526870982 -2.497001745128115
H 0.9718757501744186 1.0183630626248938 0.6820836463979257
H 0.7362368217706644 -0.7340144342193187 0.46178950914260275
H 0.7672262498837681 0.3602112243495426 -0.9584137207956627
H 2.65137561026249 -0.8942496457126039 -1.8497984358813113
H 2.5728039721733373 -1.9603934175641746 -0.44221022940191296
H 4.935253195357731 -0.9334142124987056 0.20350012795661476
H 4.874479893179838 -1.6231045439182048 -2.7926710750833195
H 7.0738298490299805 -1.355215455004503 -0.585806116314526