15

C 0.9458055462074529 -0.06862026003216379 -0.01958965560119303
O 2.3383172814350273 -0.10532158994246217 0.023662406865772274
C 2.9251370856673264 1.0391050085182096 -0.5322780100996501
C 4.415700950837244 0.9479638043141362 -0.47192276914717535
C 5.085546886932046 -0.07568909198781595 0.046775994392168965
C 5.169870126748579 2.092885477768341 -1.0197572869471465
O 4.653966041121818 3.066945699107133 -1.5035968780527886
H 0.5790207717634739 -0.9890671119645237 0.431245901818417
H 0.5741705722466428 -0.0010540656863528837 -1.0484946677829132
H 0.546930999200376 0.7922574954847763 0.5482527468567892
H 2.5953081143682497 1.9470955682837048 -0.0003736225557788637
H 2.6111043516804915 1.1751850944271758 -1.580503405507715
H 4.577930576584808 -0.9384523803320576 0.4653321009798664
H 6.173735023962445 -0.06707211102889488 0.05499708419604399
H 6.268583777286011 1.9835948572078002 -0.9466816918218035