19

C 2.5937444685600872 0.3924201364834658 3.477569154725291
O 3.7923343230686895 0.4610543823357354 2.751439974426092
C 3.7635567428877863 -0.3228796921956065 1.5741730238662426
C 5.058782022914416 -0.06552607662164886 0.8055041788963115
C 4.996588566452398 -0.7605562056774918 -0.5440538790938556
C 6.267673680765768 -0.5387128287336012 1.6074570760723084
O 5.165900856633453 1.3199155607419837 0.5413457236899535
H 2.703638557852611 1.030756777192237 4.352292705158627
H 2.3862768635310454 -0.6340890862604379 3.8077707739178464
H 1.7403079727506086 0.7438243669129295 2.872364653306592
H 2.9147143146707917 -0.02319726083869459 0.9508449066407513
H 3.666496033395276 -1.3898447537052803 1.827106621781799
H 5.903623440212271 -0.5452961555818864 -1.111450892337052
H 4.143765165048036 -0.39238759747200747 -1.1175780338862122
H 4.898852923903431 -1.8458315750572116 -0.42740380467891564
H 7.184000533979905 -0.3012289118646545 1.0643292064212633
H 6.2359890469029695 -1.620928134449002 1.7772326593353895
H 6.298257856349809 -0.04282129476487998 2.5822291856665798
H 4.991486696519384 1.7670289522369198 1.3723675510130668