17

C 1.1338781537875975 -1.4128729613875795 1.4683636954611805
O 2.5237630752238562 -1.5676307570035648 1.3542900169812073
C 2.9647553183139803 -1.427665383132128 0.025638668928157103
C 4.463274512259739 -1.6269641176489522 -0.01524727981617448
C 4.893503559533744 -3.007998957116891 0.4461012932165634
C 4.629296017291242 -4.117376161084252 -0.5362118904181056
O 4.180001010457532 -3.9732557774150403 -1.640665709423835
H 0.8794368449685556 -1.5482176202109617 2.5290325201945665
H 0.596763620031722 -2.165675596486874 0.8736213562741224
H 0.8048440646145817 -0.41668522642629635 1.1526843441608523
H 2.710206272154463 -0.4228826326320266 -0.3560079620329294
H 2.4547888670967613 -2.154898933978324 -0.6289711711539006
H 4.936371432858051 -0.8731579497457245 0.6182767594699757
H 4.800595151476705 -1.4577503591506875 -1.043761925308731
H 4.403782793456334 -3.282225762005206 1.38327495348817
H 5.969083512526027 -3.0437586394135656 0.6574719194388571
H 4.904540456194374 -5.131635520421619 -0.17109587223936892