15

C 3.970113269071881 1.066023512536594 -0.6791454798990675
O 2.861750589005923 0.32778203516843896 -0.23398405530742702
C 3.1081949092408965 -0.6234521194062884 0.686782708850203
C 4.281319925332595 -0.9431805563330681 1.2144163078566501
O 4.344109069371838 -1.9480713176549582 2.1377254914882293
C 5.560336884867238 -2.2550178457446397 2.6574704430467766
C 5.729626611112632 -3.2125428117968817 3.562963901054024
H 3.601498574896843 1.7824750994500278 -1.403437405239545
H 4.706066104407942 0.4148305635863127 -1.155464426823059
H 4.44953608017323 1.5966689755320285 0.14462420076484428
H 2.2014239904422075 -1.1435330274830795 0.9888714759744696
H 5.2250714436137935 -0.4708419307911947 0.9638765269993269
H 6.386383447524156 -1.6525701379001307 2.2740679659632494
H 4.896863583713874 -3.7990563323748163 3.931808846944087
H 6.719671271011732 -3.411778651108599 3.9356011671035205