17

C 4.723160230354173 -1.5461562413821839 -2.4101461297137545
O 3.9121072973578275 -2.5581084346971656 -1.8719087400295653
C 3.7299808678616424 -2.4766350324281907 -0.45908388911377473
C 2.630556028208078 -3.47392042082473 -0.14755958595302046
O 2.9613214497095908 -4.7790089478873625 -0.5591423426157408
C 4.990433243501066 -2.7694937508626363 0.2807953276623678
C 5.603720407842039 -1.9074899240856225 1.085220196602454
H 4.765572862815947 -1.7145434755569418 -3.4805833715623837
H 5.7416139706474745 -1.573854103934561 -2.0012261023634177
H 4.299725193140822 -0.55931807542696 -2.217671521900038
H 3.3748210792007125 -1.4593940008974997 -0.20177052838377832
H 1.6980831114110915 -3.1333166204832756 -0.6389692655501921
H 2.4544734022961743 -3.50082043468043 0.9292532553488073
H 3.209385014248905 -4.715081836100189 -1.4800029644071049
H 5.392655414506615 -3.7660197315008577 0.14030860468831724
H 5.207699443230157 -0.8961831499586331 1.2369438289444399
H 6.502761565551573 -2.1681635302356557 1.629602785151645