15

C 0.9652841300380476 -0.15443799741292552 0.3113337475519655
O 2.357101468647804 -0.04546635705114562 0.31115519583630935
C 2.953606100990687 -0.8030849469644088 -0.7085781794890137
C 4.468915962025309 -0.6804828586670361 -0.7141448591164445
O 5.085218619397526 -1.2883447519308209 -1.5433243574406874
C 5.106811419247771 0.18987504507116423 0.30812612692142616
C 6.428240981611291 0.3158464193622759 0.3402291106593635
H 0.5811319321441032 0.4616276072332986 1.129626797789607
H 0.6413461802204375 -1.1922061200820695 0.4753191536842569
H 0.5232653160459654 0.19543627146073048 -0.631171242217429
H 2.6001068054968943 -0.4882494480024185 -1.7063005212113003
H 2.7191767568550795 -1.8718184288018633 -0.6068319622063378
H 4.465343641504744 0.6998535255176707 1.015583885099167
H 7.039453358060453 -0.20978839488625964 -0.38609830594772415
H 6.921514151077556 0.9492633348075179 1.0738886936935694