15

C 1.545454218181999 0.1319378448805702 0.033376866822447386
O 2.967105034500783 0.14592907637181204 0.11003275573020041
C 3.5142068736982033 1.323120701540455 0.44475415463340784
O 2.854050347348809 2.3108154545729023 0.6773652021221552
C 4.9797612640027085 1.2298039109903949 0.4946490167680956
C 5.718267340052187 2.2945670023923186 0.8119619440871538
C 7.198740760278811 2.314134624443808 0.8890488414660713
H 1.2752618932038569 -0.8847881439862513 -0.24922508103727067
H 1.1973577607168386 0.8397691593130137 -0.7086589503039272
H 1.1137640085513927 0.3917652161565972 1.0007911778429333
H 5.427623568000389 0.2700535581327305 0.26783773337087347
H 5.191998954091425 3.211336402133279 1.0304780753957459
H 7.633436936772501 1.343162634905587 0.6555909630865856
H 7.524777351437878 2.6147716522753797 1.8931651493335409
H 7.606250622190068 3.0607133386490855 0.20770389227069577