15

C 2.22273244580357 2.269246845700161 -2.539962010485437
O 3.5102606093116413 1.6936331483574762 -2.44943153863597
C 3.7925694135862913 1.0911319123283245 -1.2857460351454186
O 3.021225653767876 1.0546340401802048 -0.36149942696668086
C 5.160448699066779 0.4954753011496025 -1.2301096513225394
C 5.49566434859263 -0.17479042723589108 0.06316867360536944
C 5.982140519035908 0.5746036916637717 -2.2711955438101614
H 2.15841067299918 2.712186102196296 -3.5331176640417534
H 2.0912892292026735 3.0423944868331283 -1.7771786156153262
H 1.4487676778401029 1.5104513083662696 -2.3954169164046157
H 4.791880430791524 -0.9740112327756568 0.2740481636367319
H 5.427804842297619 0.5273489680890721 0.8960736451738481
H 6.508899701474037 -0.5843448696604341 0.029358123280325346
H 5.692427848243267 1.065983245825812 -3.1824029617346885
H 6.97516086756354 0.1376180664594825 -2.2241898194516745