13

O -0.016266050558224485 0.025058379041820036 -1.2707996181151007
C 0.024976624780408626 -1.0466309095142685 -0.33230467767279087
C 1.266062339224143 -0.6441265814454472 0.48511950105555257
C 1.2354027073680363 0.6837379822860714 0.5129410768987801
C -0.027608940265931217 1.055797874733338 -0.28872905065037874
C -1.2435794884477562 0.6187640431663588 0.5505383319862948
C -1.2110484923089337 -0.7092450868687565 0.5189123626440867
H 0.04275589822876355 -2.01817245727869 -0.8263556203833227
H 1.9458967646495375 -1.3220742470916635 0.9673628709669821
H 1.8772378053583212 1.3778018571323212 1.0271523975813046
H -0.06732273507764713 2.043250838694336 -0.7426251289614594
H -1.9164514106356159 1.2749255417528733 1.0871965419762326
H -1.838532091360513 -1.4209479596075176 1.0328974125459927