13

O 0.919118229148341 -1.3175651588322412 0.004590682962545583
C -0.4310881448761011 -1.4902612239589905 0.0009757348170191184
C -1.433404400521678 -0.6066871991005982 -0.004015239707001871
C -1.4090032941545068 0.8496751633166878 0.0004398738576591378
C -0.3185890429062608 1.6190381914936043 -0.0023123515100113056
C 1.0626357653894887 1.1361777287420234 0.005522167502844696
C 1.5457210560794234 -0.10251222083730634 0.004520421856642359
H -0.6439869888489155 -2.544638530692722 -0.002646893057530758
H -2.416971649950791 -1.0799736332392535 -0.001677189683212873
H -2.3827521138625345 1.3396981253961875 -0.0013588006165141727
H -0.44443931019222954 2.691257235335017 -0.003945432808178155
H 1.8324472260277536 1.8990758143742785 0.00023626567815833585
H 2.617566696866615 -0.26818032981653045 -0.0001735659730484312