15

O 0.9782688916599867 -0.010665145735272994 -0.9126973600624562
C 2.0345210953111823 -0.07148286026911535 -0.015729138645300955
C 2.424421103584181 -1.3497308724668038 0.7877775011023224
C 3.7593237560456187 -0.5655038398985212 0.8984829262534376
C 3.4831060728984005 -0.0888029985828727 -0.5582835122534805
C 3.296782092900074 0.6552468500096698 1.6866822821451941
C 2.1626407577846565 0.9921697077207046 1.0835586835647115
H 0.15531472688841894 0.011103843820869552 -0.41515726860258984
H 2.4984943453281345 -2.23018194363452 0.14872280688857048
H 1.8865378542357771 -1.5550521297977253 1.7093640172567537
H 4.691959473620205 -1.04850319521399 1.1793839305605882
H 3.6396518268748026 -0.8726254177700208 -1.3029580622697927
H 3.9118780072446855 0.8649834202608172 -0.8695926115136333
H 3.8051487287845185 1.119791485731722 2.5270477796730573
H 1.4721353927389296 1.8053765820038907 1.2673946807187348