17

O 0.9903053650178869 -0.031563558066332306 -0.10965490328831444
C 2.3762953420617703 0.07435484091098506 -0.07412708874259716
C 3.3037975521374854 -0.5353044866141853 -1.1509278157433225
C 4.362476681708786 -0.2976368475677025 -0.05655518081881472
C 3.257538514862063 -0.6485525427580109 0.9665823051860195
C 4.395628969646323 1.2369647427128911 0.02678089106543922
C 2.8714953846812783 1.5106881310176437 0.010738700013213552
H 0.7458842998261687 -0.954052800884451 -0.158950512120359
H 3.410808489743086 -0.014010632143053158 -2.103780105223571
H 3.1143102158720453 -1.6013473509087588 -1.3116510037260485
H 5.312433361154121 -0.8217289859818236 -0.05537504660286751
H 3.329799291243313 -0.21927634621260933 1.9768494290789125
H 3.067559740450333 -1.7164436132051981 1.0092481496105405
H 4.912927041375498 1.686281896667099 -0.8240078918720022
H 4.874850363353501 1.592836813251705 0.9416987669727612
H 2.545255590206585 2.0923548120504316 -0.8555000029988445
H 2.5000440019468426 2.000378011393777 0.9137828442938155