15

O 1.5338405692660906 -0.4615948180382643 -0.8650681098877829
C 2.7142006195710353 -0.06778472740890355 -0.2588188291351997
C 3.592605152429784 -1.0919371490727214 0.4133570559538637
C 4.021666252093282 -0.4299599887011452 -0.8721378846090753
O 4.908264461467088 0.6319293365381201 -0.7655543209922941
C 4.13519936851804 1.8190855001595823 -0.5647678059925484
C 2.8761162190748393 1.376587814977031 0.18697665789912807
H 0.9075803095868912 -0.7188918059812466 -0.1734485569490467
H 3.273712383283182 -2.12130144882934 0.34247494031273135
H 4.117813953842215 -0.8034677709664862 1.3178112058746143
H 4.081454949595361 -1.0241727181393407 -1.7826794741945273
H 3.878869408529476 2.2602222117442574 -1.5309395923946345
H 4.760880330220323 2.527975649953903 -0.010074796475110658
H 1.9985268052889862 1.957434271968269 -0.11972748927775188
H 2.986403148412669 1.4705422208350314 1.2666485470265547