15

O 1.0834295457890395 -0.17667021112681114 -0.4301575325891613
C 2.3576339274391342 0.24612047922490798 -0.0685237211997984
C 3.643605316382397 -0.4872419675251717 -0.5821499443078488
C 4.329702447800231 0.889805429133357 -0.35719143996887764
C 2.961738703090167 1.4164858269925253 -0.8916407081498849
C 2.9775945818473715 0.8088691913213298 -2.288233893093635
C 3.420707112955248 -0.4261406053732869 -2.087041442430792
H 0.8011708380464503 -0.8558984517288761 0.18035615657388687
H 2.4273314576721083 0.4370155854556268 1.0103445508300406
H 4.017568119687489 -1.4140607437165966 -0.13687638669215282
H 5.205048006666811 1.0981618546491512 -0.9648435549405167
H 4.5111985932239955 1.1260876585667887 0.6992270831838783
H 2.641428554764041 2.439648094881237 -0.762243690819606
H 2.6641648375046416 1.2940260398076089 -3.200780006197963
H 3.5683020083577945 -1.2367876335613701 -2.7928984264688457