17

O 1.1854127512202917 -0.0005574599961538002 0.04994226463171806
C 2.5817982867441995 0.07226607287721615 -0.025494595722265062
C 3.1596677330957896 1.1189316198493588 -1.0171546485865632
C 2.7656648536167654 0.12053934108546044 -2.1296371560225005
C 3.1498770934436275 -0.9269150279187516 -1.0609534943729022
C 4.649363571079966 -0.6894345658610138 -0.9062838449813455
C 4.649432096146776 0.8688979252824509 -0.8736902300176621
H 0.8632184864013012 0.7899423107018488 0.49198183326118494
H 3.030308503900551 0.053560122448651395 0.9786798997988422
H 2.8069269096133636 2.1563047198717165 -1.0183876317691256
H 3.3433765178671 0.1334621336643695 -3.058421305968248
H 1.6980891923407049 0.11601293820997441 -2.3492835832580914
H 2.790110546944419 -1.952024831008225 -1.0848390917623578
H 5.220190550530846 -1.094416191346468 -1.743075455627714
H 5.046554760951387 -1.1287259078516871 0.018150813245555848
H 5.230827704397881 1.3083035198435473 -1.6898681882688271
H 5.054404769595337 1.2609613583287156 0.06818167419249282