15

O 1.1888889658912487 0.1368402540125373 0.19539375509542628
C 2.580391215844309 0.043236209548691666 0.11744180553900269
C 3.1528138408763775 -0.9171247367565344 -0.9475946702586882
C 4.664197407941097 -0.7306340898120909 -0.7852430835203936
C 4.669559466968796 0.820198144801127 -0.7728555437911672
C 3.1528423478171503 1.0181104887123429 -0.9137244380239545
O 2.82169862305362 0.06442995848705645 -1.959844250013005
H 0.8459897981170208 -0.6833329892082826 0.5698958308759662
H 3.049261849338875 0.03133529227625202 1.1140774896148387
H 2.7477956208865697 -1.913339650502951 -1.1291670040714423
H 5.207598319245864 -1.1457341765669156 -1.6338556927105194
H 5.059017960123008 -1.1711588116168996 0.1315792663050459
H 5.201172137401384 1.2571084854773147 -1.6148614735874216
H 5.060826048937081 1.251419364129867 0.15638227238759428
H 2.743258018081281 2.01767189477368 -1.063773816333374