17

O 0.7234967015878758 -0.02857050841691375 -0.14345342420004958
C 2.0710948838275614 -0.000949696584193145 0.1891115507880377
C 3.0438404845833054 -0.9584453395061182 -0.43736040676892446
C 2.5668070580239 -1.7706806974295632 -1.6230607020203833
C 2.6825087091997375 -0.8246140142631487 -2.829904176381414
C 2.5329910238589757 0.5947012668385548 -2.2730387816908384
C 3.0291535252855106 0.5074459300787871 -0.8368215386523062
H 0.32424962836218213 -0.7877633684650607 0.29624470113911144
H 2.26592652141886 0.2952540249390648 1.2171487691989402
H 3.8327107726871215 -1.3582612461911114 0.1911110685621879
H 1.530767516090597 -2.0938150705801597 -1.4807034847919052
H 3.17159067779819 -2.674111608839046 -1.7528187044265762
H 1.9586725514286805 -1.0567380854657296 -3.6160134279848437
H 3.67747111678604 -0.9340494090973156 -3.2672257923237624
H 1.4811157312423966 0.9100383574108301 -2.2883425838214393
H 3.1061872014788987 1.3227652822774785 -2.8357193045787517
H 3.8077037385645105 1.1852615882841044 -0.5036009374282666