15

O 0.7721188034762257 0.12217546940328586 -0.6384746037582042
C 2.033060419519619 0.02720097999807971 -0.05085025716574565
C 3.009805970482634 -1.0665419472586162 -0.4318926711037247
C 2.742121785426264 -1.8247922537404253 -1.705961107095165
C 2.544602659063216 -0.7318865138980829 -2.7671842585277404
O 3.1291978034909205 0.45876677248307524 -2.2496444296687423
C 3.2358848370406745 0.3501303844577039 -0.8678419106958412
H 0.20959949152349694 -0.5529478932839181 -0.2406975085599596
H 2.074334616671722 0.34782355474832244 0.9883338379309032
H 3.589306793949752 -1.5334629688122368 0.3506225688483113
H 1.8691065000578218 -2.481204008456749 -1.6542125681804858
H 3.611140410601662 -2.448714014868069 -1.927657269518675
H 1.478198561447083 -0.5640648422429451 -2.9494345061893914
H 3.0328678888810643 -0.9697268060123682 -3.716294111068986
H 4.008390550607372 0.9974329742713607 -0.47226239104645223