15

O 1.1052355698960046 -0.15503672184873868 0.0330016485946412
C 2.5067830791371812 -0.062254158196819925 -0.009798884743791153
C 3.091925783610688 0.9762277629166999 -1.0168435284940962
C 2.71608750868764 -0.03594138583336288 -2.1231244758863297
C 3.1318580733523778 -1.0316341009518823 -1.0243045154901984
O 4.5225465441815835 -0.7865491453349185 -0.8564336360430397
C 4.565202727943146 0.657166995964601 -0.8451301163804188
H 0.7623319065746564 0.6126281563231233 0.49676517060113173
H 2.9466296187102117 -0.08269389334380305 0.9936558228573462
H 2.8001992077474496 2.023922813412767 -1.026255951800071
H 3.2964718810330114 -0.04077100600622893 -3.0489630299454507
H 1.6478681251305243 -0.05572347537551366 -2.3220496659445415
H 2.9279185772453746 -2.0999564112363167 -1.0503943597311718
H 5.196851729161866 1.0142158360733724 -1.6608499592470547
H 4.982755248998489 0.995275474433799 0.10251807339609131