13

O 1.3186270872045838 0.034833401663679986 1.0801993704704733
C 2.4790191701825313 0.019346460336535407 0.31058551472510304
C 2.4083059140819842 0.7133240641739833 -1.0054560554695122
O 3.604747058034525 1.124075019439969 -1.6205574412420232
C 4.314972779019968 -0.01070831205736697 -1.8770744328465565
C 3.6853597129078883 -1.1416319930730274 -1.5599603147558427
C 2.386020766999829 -0.7957863886249193 -0.9475086350803685
H 1.2164820553369977 0.9248177076280144 1.443875392030327
H 3.4202869399452207 0.001751561554193223 0.8444589186776883
H 1.5564301670711211 1.3346854523949263 -1.2540908048694996
H 5.292116683274258 0.15130025177372777 -2.318224792623077
H 4.0679988469627295 -2.1351356159545163 -1.7291319455962422
H 1.4916289434450138 -1.3821214927597711 -1.1110438790140242