15

O 1.1450263103293226 0.02886901375179574 0.11849425402447962
C 2.352591271991131 0.0430067834102444 0.09921297257795092
C 3.312907682833365 -1.1461840538378658 0.12740481227558775
C 4.62118692212568 -0.3527537927199113 0.07756861879186576
C 4.3082031009485995 0.6914730291148135 -1.0224739737377067
C 3.28548731293224 1.2183609784844183 0.028960675799414526
C 4.338427405529738 0.7847563257399975 1.0794247863762418
H 3.1532346315956548 -1.8040482670196598 -0.7261912157716207
H 3.180588078330562 -1.7295786596002107 1.044227554884122
H 5.551582264923773 -0.9142678890065912 0.08464219917919474
H 3.9179144777057044 0.3415680101499257 -1.9837676656368588
H 5.118867352991294 1.4014488521753685 -1.1790190631401332
H 2.842997174020591 2.2088483402408534 -0.010915416906803208
H 3.9975596302384546 0.5160888597036267 2.0856111907862513
H 5.161699003722853 1.5000700899618618 1.1451818575329629