13

O 1.5985158994234145 0.2692530832997233 1.2510519534348594
C 2.3624406536358045 0.052298824664603956 0.3631944985643671
C 2.9721711223546725 -1.2872512508861564 -0.04047527387321136
C 3.9513280577934875 -0.9465431391541094 -1.132092515026566
C 5.053223388543483 0.010117990279060334 -0.7765351054590302
C 3.7829699485748174 0.5248461392441297 -1.3476112134442326
O 2.84129870904391 1.0367521063745488 -0.43897752439405846
H 2.16201773714611 -1.9262918088570897 -0.39424832652471997
H 3.397553117201989 -1.7671168422646792 0.8358507854689522
H 4.082070772546176 -1.6252302899233324 -1.9562028339051853
H 5.923276393562365 0.01845988348111817 -1.414483959159338
H 5.247729868442572 0.21988571815594543 0.27207181901053373
H 3.7275518028270533 0.9977099526101797 -2.3233313920737872