13

O 1.6002040055015676 -0.04807021750145794 1.355756842209701
C 2.4216845175441994 -0.0423199240094195 0.4934129088252978
C 3.170165305059851 1.0501622725257245 -0.2389217497561594
C 4.141467782144773 -0.046875319680705727 -0.7815720082685718
C 3.1707657118679884 -1.1426884448781445 -0.24544804839883255
C 4.425665497289456 -0.04801995423623257 -2.1957309419256217
C 4.640468785993799 -0.041095388086743206 -3.377785587179227
H 3.6005938947010643 1.8494897895998763 0.36989689373891754
H 2.566765201027697 1.497685358529552 -1.0360621384309778
H 5.075252185194916 -0.04381292174484767 -0.20838342408994642
H 3.6026004957044337 -1.9407172350082178 0.372640205908266
H 2.562235459723536 -1.5903063229272751 -1.0325896417524256
H 4.845995796412188 -0.04315055977309816 -4.423176183768529