15

O 0.888341977237229 0.0430940255534732 0.2451709860505216
C 2.292103548143008 0.04654346505526994 0.17339940465203285
C 3.0816811878920736 1.118244023572234 0.9728101568780404
C 4.126359746033656 0.04689235657186061 1.2972297940128195
C 3.0820182693181204 -1.0365260869191832 0.9721512873589377
C 2.665579538154993 0.040218462908607894 -1.2359953188426052
C 3.007969853490302 0.04125628620445228 -2.390546563051292
H 0.6452926544801911 0.042277842463301525 1.1749311364186383
H 2.5035628794524247 1.3979315223795536 1.8554690912268306
H 3.381389803797386 2.023092085907167 0.44143672242844817
H 4.551898424141485 0.04195682100520082 2.30432865883436
H 4.94400226136753 0.04105022907970782 0.5710728868739183
H 2.4984872794604116 -1.3067971615041365 1.8561672243848821
H 3.3815639318872295 -1.9345705611570516 0.44313626729132394
H 3.3013833454191364 0.04702243345965843 -3.406252955978612