17

O 0.8616115683581712 -0.32375696659871084 0.3068604966388674
C 2.2362312542050957 -0.14100087975927533 0.1024110740079565
C 2.9326844791664937 1.0929241281436 0.7277992108212711
C 4.086280969042999 0.16112118581139012 1.1832475672125977
C 3.122802901227673 -1.0305166366573806 0.9688325847546613
C 5.265262659774523 0.16019611754011473 0.2655933525324098
C 6.521700741440728 0.3345022306008664 0.6367285680486964
H 0.38071013441035395 0.23691839384733196 -0.3098545894047933
H 2.4961669032650544 -0.23677843947224578 -0.9521768991581999
H 2.3541600151231155 1.447047656310289 1.583213260582977
H 3.178311389393215 1.9378361274324896 0.08034583367678895
H 4.428461302121099 0.31850449948374004 2.2019751770697398
H 2.599638392088716 -1.2790464035245546 1.8958375465174846
H 3.5244576096798674 -1.945588003845937 0.537594655677448
H 5.042649240260414 0.013240671679311504 -0.7960145787873961
H 6.783013532082877 0.49137672351053696 1.6776780690252664
H 7.331851165787553 0.32363731673961016 -0.08149786976821431