13

O 1.8727047768335074 0.25039665006283873 1.4019050678472293
C 2.5779554658815806 0.022854386949643184 0.45559745358227605
C 2.8242003073060076 -1.3357084400692985 -0.18615831119656068
C 4.209943779163644 -1.231627241564706 -0.8404437252628686
C 4.419946022911057 0.25577214348238747 -1.0477175557386516
O 3.3227261718918704 0.8717987942501105 -1.6833405360017022
C 3.43734670458892 1.0192125413705335 -0.2600311824906514
H 2.0393201605010614 -1.5113760315482485 -0.9227608458479118
H 2.756679581910175 -2.123313841716864 0.5648510277283422
H 4.287286262293927 -1.7774024514872466 -1.783984033366116
H 4.988243274997277 -1.614045102176249 -0.17563033070325185
H 5.395674916686096 0.6648699235342481 -1.2841351046087135
H 3.580496847055499 2.0259199640229455 0.12307051611758726