13

O 1.050740687448173 0.034895087946566955 -0.06152215372467964
C 2.465595702399395 0.17702839211725063 -0.08678721763429761
C 2.9526505114675974 1.4819858828113623 0.4848009587664611
C 3.6547102993616942 1.3070553698792047 1.6101138356083395
C 3.7791161151596757 -0.1322556093612148 1.9176664446341136
O 4.456577010924598 -0.8727949470070105 0.886212181545
C 3.048313553316127 -0.8512632433130884 0.8650914996873122
H 0.6593871388130395 0.7183048723235793 -0.6137120744961521
H 2.8553911549999413 0.016452116742228035 -1.0990126314618645
H 2.782810389998713 2.4376510870003063 -0.0007395498182038629
H 4.110932544889885 2.097997266355949 2.1988213254741167
H 3.9122964432830774 -0.5108280277342371 2.9186869457857214
H 2.523557891624396 -1.7880693559432674 1.011987592650843