17

O 1.0555290989738204 0.0283837534206844 -0.1036185040841992
C 2.455590554290492 0.10374126255019532 0.005866823623888998
C 3.004625129718726 1.218499813705295 0.8908802248642695
C 4.427817645861856 0.7501790990132172 1.1853599898918001
C 4.276332433213808 -0.7719578407101291 1.3871867809661167
C 3.031314500718636 -1.1468735115879136 0.625992998938756
C 2.4719223906888534 -2.3413516000402548 0.5447047892306172
H 0.7526974715822695 0.7513264909550778 -0.6527266033013926
H 2.8985632423259418 0.2078490757589847 -0.9968644432560703
H 2.4105964753443114 1.2410353222242483 1.8129219239046297
H 2.9585447345833282 2.199494942065246 0.42612140475725846
H 4.8774895021919615 1.2487321940615908 2.0387305334616848
H 5.06670369520747 0.9478294202362862 0.31167636809801724
H 4.133724507579201 -1.0006255958610155 2.448580171782417
H 5.155284481450991 -1.3333407897081637 1.0644276355869646
H 2.9030614793514053 -3.2156490381849543 1.0322550183325228
H 1.5432926059292722 -2.4853426288885965 -0.0017100607784835517