15

O 0.9989993629755264 0.11691716858918631 0.13671837187331665
C 2.4019094022324956 -0.004928560281422531 0.07732527831554709
C 2.847839465448349 -1.2314438505877183 -0.7454356664308195
C 3.21953138470747 -0.643462277337442 -2.0783617236786758
C 3.2276185033225344 0.682913400147498 -2.059873329937041
C 2.9193751532311207 1.2286656650812096 -0.690024315720723
O 4.060709001273332 1.8302306326839033 -0.10587717433348078
H 0.6409346210721728 -0.6572083518870985 0.578367615787503
H 2.8272007553037346 -0.0035267506002235422 1.0862135449416368
H 2.030943088217167 -1.9581189363199627 -0.8214574789052759
H 3.6952708315265412 -1.7659742485087733 -0.28912077053185686
H 3.4545051658326895 -1.2542160470481019 -2.94079087667143
H 3.474027753993301 1.3274598383946254 -2.895140017981622
H 2.1457347645865372 1.9911814111488981 -0.6920745551400989
H 4.829681455490432 1.3052130245304439 -0.33019058764973885