13

O 1.3341761345452 -0.29613025973720875 0.6050113001775687
C 2.574934920539044 -0.1724207319603574 -0.018090555211466193
C 2.896196723136986 -1.29106061824238 -0.9962009536937108
C 3.5587889061012894 -0.5714633877620238 -2.1318351825654056
C 3.4436326218100892 0.7629619854291012 -2.051110814385224
C 2.6767515402062174 1.0936692529909997 -0.846586698696799
O 2.1519507297663116 2.137722323166817 -0.539187823760307
H 1.0164692808949547 0.6039729614459521 0.7586219704346043
H 3.382300949900748 -0.12068190964597073 0.7337718607683508
H 1.9724107648086096 -1.771497560125148 -1.3354211055647525
H 3.5308408678233962 -2.079495728379842 -0.583062414933262
H 4.054645722138661 -1.0984194495974584 -2.9454387361160417
H 3.795323708506017 1.4919162605178702 -2.769510660345348