15

O 1.0034511602811202 -0.12169512560008737 0.046983547335863476
C 2.3916728335058277 -0.03450831559461852 0.107050908635491
C 2.996377433047459 1.0696905929982696 0.9745107258726948
C 4.412524251714412 0.5636759249176975 1.260935980843496
C 4.224299111325737 -0.936261371861609 1.4935777542761368
C 2.988380412109141 -1.3128600069468706 0.7026652286137252
O 2.5424186204391517 -2.419885207230868 0.5749229442430368
H 0.6694922840576732 0.5867007518738225 -0.5130787821758607
H 2.83259601680054 0.03154502257270646 -0.9036128922316985
H 2.411095893061045 1.134871005975555 1.8998462997795345
H 2.976445535421793 2.0457280413078207 0.49045125969339876
H 4.876248468328852 1.0738416345358195 2.0974890324775854
H 5.049478858759568 0.7381016660622476 0.3903604512804424
H 3.998532144312049 -1.1433558076452475 2.5485481523289857
H 5.076965976442823 -1.5549723966188933 1.22082308718709