13

O 0.9435899916201456 -0.11589590077103851 0.1301566654991719
C 2.293341039928159 -0.0430782708339925 0.006759851002222586
C 2.966135143285399 1.1704110156229992 -0.05914329234596973
C 4.346568192478517 1.1800565510092564 -0.17374637274341598
C 5.06380432393356 -0.006364859778324546 -0.23830175389496208
C 4.3768355378603925 -1.2144359886036418 -0.1697762631888418
C 2.9939393907856875 -1.2412817517489134 -0.05099324357847632
H 0.5783725622209925 0.7730230256777327 0.15855458483725532
H 2.4090996139819625 2.100744051714891 -0.009302233160498026
H 4.864447124619115 2.1300033415285493 -0.23178901822475914
H 6.143636922231162 0.004037120537925036 -0.3331156765637422
H 4.923325540716549 -2.151978699631188 -0.21574549821350633
H 2.453390168515669 -2.1757325295917904 0.0030012461766434602