15

O 0.8913893210351167 0.01992200373624662 0.21724999078428966
C 2.082971749993343 0.057268434242844925 0.02790876207221511
C 2.8020250430527405 1.3339586563166734 -0.3272642860280124
C 4.23591814538082 1.3528548623506549 0.1800019914802106
C 5.0108231486745956 0.13083347851723642 -0.2939414731693814
C 4.231698375185243 -1.1267358678340393 -0.08774335012810583
C 2.9107154769786545 -1.157189348074576 0.09720156707831858
H 2.2191234027466775 2.178311664552778 0.041823954338893674
H 2.7993073807455997 1.400782222996238 -1.429590459991121
H 4.2300589719723645 1.3607327411199808 1.2810573791208877
H 4.744929004317967 2.2721173288709644 -0.12893262502645872
H 5.9713267837702135 0.06138549982182702 0.2167631768903002
H 5.244104666789923 0.22393242448516612 -1.3607353090341896
H 4.799872796138617 -2.061059698037539 -0.07587687395344421
H 2.383653268249999 -2.093127424214832 0.2631994381308993