15

O 1.0415057582644835 -0.09853689330391914 0.5934084382891067
C 2.318970756203161 -0.021744999374973456 0.0035140315896302807
C 2.495763655068841 1.2339126076624187 -0.844379816843223
C 3.72137577894778 1.1564006955786037 -1.6938615933205847
C 4.154367028308325 -0.02673860276736997 -2.147813557143683
C 3.4446221820632346 -1.247021998789396 -1.795106074676751
C 2.5393113946473926 -1.2531105473019537 -0.8157358915832381
H 0.9333668157958751 0.6550364450981384 1.1904702001343825
H 3.093469764956158 -0.011783625266725177 0.8001438695996415
H 2.5169115072694876 2.124076064593729 -0.19561337463865863
H 1.6064225818677424 1.330224895304979 -1.4893920199820752
H 4.20711309530132 2.078375010326947 -1.9972537798628782
H 5.013691073486505 -0.08595885664474356 -2.799813910319626
H 3.6517049129410313 -2.1505112516041978 -2.3544113438892116
H 1.993427108295291 -2.140299406267793 -0.5334737534808717