17

O 1.0285008653969754 -0.09972514964618 -0.08389073274778705
C 2.4227317672722384 -0.05004887361478021 0.1093590616155104
C 2.922830747908795 1.0967079055934723 0.991283315717671
C 4.302118878755772 0.6303226050424675 1.43762754531646
C 4.183776705475753 -0.8814616699694777 1.5182539564808353
C 5.068744433367457 -1.7023130296417 2.0593693651894505
C 2.8775388348717406 -1.2921142531933651 0.8762032904229072
H 0.7659758184088694 0.6750720220886273 -0.5871687908242832
H 2.940464508682209 -0.013774852124813728 -0.8627678094707446
H 2.239419719278984 1.1819503998954255 1.8471961398045995
H 2.9296891299928123 2.0627323824068524 0.4795301428139322
H 4.634292501558038 1.0721073410730648 2.3727905075280735
H 5.048335000335641 0.8909201239171062 0.6782554791917604
H 5.9807824697688625 -1.3243724179269667 2.525077210274387
H 4.929560279481768 -2.776377266202858 2.0614638489786485
H 2.1216964844327366 -1.4996035339716476 1.6453162482876083
H 2.9601254771603696 -2.1806553227953613 0.24543238443074097