17

O 1.097853282591382 -0.27036392005334114 0.6027321944899128
C 2.4109489762804723 -0.04430352318511882 0.1126608700680359
C 2.4944192344022813 1.158200728068401 -0.8060432083190341
C 3.828739737614371 1.1909242468258343 -1.52316272267804
C 4.002157671394392 -0.03565163106402909 -2.411390614425143
C 3.534790699342338 -1.2894425361600328 -1.7290682153941073
C 2.8206156447700512 -1.2939995194892755 -0.6099508319270999
H 0.8271541874957924 0.5154925101038702 1.0996976031502568
H 3.0909278833115046 0.10131100996373126 0.9696865232945139
H 2.334946753803648 2.085031791631997 -0.2337793532029594
H 1.6730755291485824 1.0886216770648482 -1.5323781531559397
H 4.636358867013153 1.221982873022893 -0.7814744531041192
H 3.92542060458364 2.1074713622506915 -2.126844307941872
H 5.054540137209498 -0.1529070889161217 -2.6988036757816842
H 3.455752841192527 0.0843358755525403 -3.343403547377808
H 3.7840668251067813 -2.2354287066721157 -2.202651474322015
H 2.5026995653064463 -2.2239985667215207 -0.15979368328639895