17

O 1.041648262904015 0.17123232471827732 0.16405489091044076
C 2.447125183301505 0.07103197759884582 0.05845506311923414
C 2.9002993375278727 -1.3358446782469133 -0.2940841765100417
C 2.5214358064612203 -1.6779060028033332 -1.7298889843170242
C 3.028170629184345 -0.5888911311183308 -2.661604811488617
O 2.5237558965634257 0.6775443869325337 -2.3059073034049926
C 2.903888902377472 1.0558796223309195 -1.0062986877238382
H 0.7346607609342719 -0.48577207416044205 0.7956042554615338
H 2.9170593486108602 0.3865185527798655 1.0131604113915025
H 2.480110026069691 -2.0615413315287667 0.41249496823928605
H 3.995262537828076 -1.3859111038672345 -0.1843255259681318
H 1.4348572650934919 -1.7356954925543258 -1.8263866818578876
H 2.937045625896262 -2.6392466629698426 -2.0263276551780454
H 2.70554243150794 -0.7729355973752909 -3.696058289753932
H 4.126869247890669 -0.5761978240461879 -2.6533793994774735
H 2.4521066725033074 2.029035612715847 -0.8223870989134046
H 3.99950701074737 1.15346614257046 -0.9451117002453977