11

O 1.3610498719943676 -0.01938742399506338 0.8547481541883969
C 2.3819462576917627 0.07735984884987483 0.2567061340877795
C 3.3792262244103486 1.1641740470262176 -0.08959600110315137
C 4.138354496934825 0.024799905816528113 -0.7699646903382448
O 3.0777616449847134 -0.9048563358047004 -0.3743413759266748
C 4.33374289089994 0.09568157703681004 -2.199947350383822
C 4.500936917474289 0.17660949049005703 -3.38308118109522
H 3.865968031212219 1.628278929368648 0.7697119862423619
H 2.981438227255449 1.9305202209414967 -0.7618187098892097
H 5.061878772490675 -0.26285399106576657 -0.26554538794086424
H 4.656818563970751 0.23662673425968844 -4.428270446724138