15

O 0.9231153485787424 0.029334758127193113 -0.04754008165747807
C 2.3225834208474594 0.1168338952605699 -0.031072063196805333
C 2.920512438078195 1.2188566134364316 0.8428006406022888
C 4.281773169589072 0.6332277224636215 1.1560224600702436
O 4.085354566241808 -0.7780883152126149 1.2308208788344306
C 2.9327219160485125 -1.1117105864798118 0.5869795730357854
C 2.4516184550923463 -2.353569403668158 0.556161282150457
H 0.5821389913468582 0.6855155467591691 -0.668125848724962
H 2.707650550712092 0.20404435653115569 -1.057073008393825
H 2.305145848945738 1.3178853355933569 1.741006094112977
H 2.9743297063497307 2.185459448776796 0.3389295969881937
H 4.685627395216503 0.9621620333450144 2.1188665395865622
H 5.014091557749454 0.8541362663589408 0.37322057008300985
H 2.954999285174705 -3.1693486306347367 1.0546292574741079
H 1.5234500338149413 -2.537772951747048 0.045936975778939966