11

O 0.9115839209630968 0.09410182673815143 0.062366382584987036
C 2.1278552297000655 0.11073988852018198 -0.03262477534363149
C 2.9234849592436047 1.3317321981712686 -0.09151408166762111
C 4.254042419022994 1.2779069940736687 -0.1867446611922017
O 4.963676983131922 0.13741047075246834 -0.24968556438837772
C 4.273912811112229 -1.022404649780736 -0.20478797728644335
C 2.946745770979479 -1.1014985622663154 -0.10316154276681067
H 2.421968855928585 2.288211849979311 -0.041466760215029395
H 4.908989231383566 2.1427339450641347 -0.2343375885104043
H 4.944284377240254 -1.8721322571886267 -0.25633658851270663
H 2.463429424826737 -2.069586574268322 -0.0692249500350845