17

O 1.0672858066749595 0.023875420686146037 0.17607027851043225
C 2.482846699311032 -0.057673782348565183 0.09504589203130506
C 2.9473803518968493 -1.451371407050593 -0.32696194297777254
C 2.5547379026634327 -1.7406560932235273 -1.769389998438956
O 3.0645387846655914 -0.754625851018149 -2.6426285351086993
C 2.5511388328064895 0.5155830382423954 -2.3464297724213647
C 2.93404812312815 0.9659126836163403 -0.9392391114182677
H 0.7620749709285132 -0.6468128179024699 0.7940049302735769
H 2.9292191843281725 0.19170067514347694 1.0658719915286563
H 2.5135348549106684 -2.21330169910764 0.3360504119926651
H 4.03888174948097 -1.5117567720690874 -0.22852456093258847
H 1.4668884543894536 -1.782115804686481 -1.862344606591164
H 2.9676099222666785 -2.697455134379378 -2.096932833313788
H 1.4546628904300516 0.5098579507008564 -2.4429227399801956
H 2.961067576875027 1.2054990753795845 -3.091422215255632
H 2.4775265143014096 1.9348311420804072 -0.7154217981411083
H 4.020393459997449 1.0765017779885604 -0.8760186008376893