13

O 0.9435385774658587 0.07237446657029813 0.48007260322310685
C 2.114566543526247 0.08652826800997217 0.17954363998462317
C 2.8255334853378944 1.3504520459188485 -0.27434697584406276
C 4.2931444095660085 1.2912291100291364 0.08013200787344907
O 4.9318760390649095 0.12039686869156475 -0.4251415470715875
C 4.254428941379357 -1.0071027102306678 -0.2406432139349563
C 2.964005863741201 -1.1005553054408312 0.12934704944589928
H 2.3486433369113797 2.215313616600702 0.19009869953213848
H 2.6919979635288165 1.432474673788703 -1.3577929397563102
H 4.416202784212933 1.2825253139744166 1.1749462220078637
H 4.855402930183378 2.137045918520236 -0.327658115349901
H 4.87084524201879 -1.8811560772888163 -0.41272071149328493
H 2.5081896271487727 -2.0750344808486063 0.29448340508969456