13

O 1.1336570605771796 0.0517159210219394 -0.47701178364546953
C 2.4890425719112814 -0.054802153606426915 -0.07604630841402628
C 2.8446211641389145 -1.3411481445097255 0.674298088534023
C 3.58751582244669 -0.887740957671331 1.9293539038076362
O 4.191160941539966 -1.5922351838418203 2.689923783929098
C 3.418745344586584 0.5844878415343056 2.0110564320833126
C 2.7902165279096454 1.0300660576287493 0.9176040446626796
H 0.9867469696286274 -0.5346719473836666 -1.2204162736014152
H 3.1497685846614796 0.07463121478277022 -0.9467283741796945
H 3.450069410788459 -2.050030447883393 0.10395297460829396
H 1.9258218469975195 -1.8489155455413377 0.9874810388740933
H 3.7783671102471152 1.1601764782132293 2.839551983208995
H 2.510220677035802 2.0527786808129225 0.7143636470235485