15

O 0.9076730887670417 0.02897508539215963 -0.349551660378669
C 2.2696778923168357 -0.07787701895644866 0.07026214857548949
C 3.084531796880547 1.1565144604518987 -0.31210985090818233
C 3.418351661864446 1.0872823218896304 -1.7922758069190547
O 4.233830202173149 -0.04440222837757789 -2.080699812069966
C 3.8035189370921523 -1.18524607983541 -1.5152159968954817
C 2.868609541068428 -1.27948044229523 -0.5559066070413922
H 0.47183736887199984 0.6791617999043317 0.20950049752168987
H 2.299793223594998 -0.19396824898950144 1.163478083303113
H 4.000549391590147 1.196480770678137 0.27694935594836056
H 2.5135457176771143 2.066640536126784 -0.10625164704547449
H 3.9862346234488255 1.9526990291954258 -2.1206859607681534
H 2.502201734517166 1.015391253546932 -2.3721649179433797
H 4.312804394882676 -2.046945451138918 -1.9244751465157093
H 2.578367274404715 -2.2637917977876514 -0.2099985967402458