15

O 1.0558293975678672 0.6325627997247874 -0.049710552230693664
C 2.3973412988360097 0.25768072310570755 0.010473694246233727
C 3.268741790777929 0.8584084551951455 1.1402171027623538
O 3.7418704140417574 -0.4423995823651985 1.5044985953810017
C 2.7471759568084853 -1.0774080797672254 0.7021638488674147
C 3.0258319473276667 0.39499300964854067 -1.330384946061542
C 2.4025167080891747 0.8074253385153254 -2.425500814593266
H 0.6728169630340339 0.5454304555198314 0.8200268434299685
H 2.655947557672299 1.3019006419059973 1.9430598606646887
H 4.070357215074022 1.540175108472134 0.8617492526166448
H 1.9175119613504945 -1.4647552169206122 1.3115253059526506
H 3.1507829772759526 -1.8910539068262182 0.0888438808103239
H 4.074631530716587 0.11804432779749138 -1.366922510269079
H 1.3488795076271545 1.081726993162251 -2.403916609892235
H 2.9195213525547308 0.8810668379084432 -3.369443330748717