15

O 1.0633811860169806 0.07621109404053689 0.22516584361826333
C 2.417665951662295 0.016206927006502374 -0.06096459425502635
C 2.9022448550995645 -0.42588813441098816 -1.4197094581512444
O 1.9925511200805783 -0.7761112233439387 -2.4093678306820276
C 2.9306207795170067 1.0180152305038566 -1.0510756771331176
C 4.168116522359888 1.7777166885480034 -0.8118304920868389
C 5.392669590596047 1.414851254504366 -1.1676857656900823
H 0.7406183703509123 -0.822335036130725 0.3994071146369783
H 3.0667675698589822 -0.2141274780193891 0.788683999592814
H 3.8455449061363915 -0.9656774789874537 -1.4524323565125303
H 1.6746616521378848 -1.6686240199766584 -2.235358504671621
H 2.1107384546178016 1.5737251694133376 -1.4969846421393251
H 4.037835678555382 2.719213766124205 -0.27873463611040716
H 5.583638291279161 0.49448401220501115 -1.708449776971106
H 6.2524562530618715 2.0305125828868 -0.9353665955945509