13

O 1.032470471066548 0.4044884719011288 0.11613264242455457
C 2.4046364593648466 0.20576514162229956 0.04694270041022267
C 3.2295148552066806 1.1027718528309873 0.95140625322035
O 3.978784556280688 -0.021422631967569647 1.4400145807738707
C 3.0306114208527197 -0.9501872683036557 0.8725090249625259
C 3.626937169827218 -2.0720314789342877 0.17818560905098982
C 4.084626268264334 -2.997299746724478 -0.42236167576591804
H 0.5948277870571133 -0.09161103484774992 -0.582132362644811
H 2.7694983612295325 0.1914291986621511 -0.9875891607678321
H 2.628365450973114 1.564330177184329 1.7387983253054482
H 3.871071304012264 1.8467666775612068 0.4868080409328569
H 2.3270982481446354 -1.3043968535897958 1.6368048283732617
H 4.504464608717909 -3.8143809087169855 -0.9531102407212547