15

O 1.105288509641569 0.11467801373615677 0.1932383526932956
C 2.486914293227766 -0.12703836718430783 0.006025594879285356
C 2.824602717585225 -1.5813932918495093 -0.34687336936567403
O 2.8828931870925483 -1.6698246797644152 -1.7578865043740632
C 3.259752386952236 -0.4210878365356557 -2.2509250048436393
C 2.1438272977706005 0.5589768677875104 -2.4447014700998473
C 3.0066274010618117 0.6225263822635133 -1.2012640385366886
H 0.8105497883010369 -0.38481271503072273 0.9508706855759786
H 3.0458602973347304 0.18041444038390725 0.9063731233233806
H 2.0714162574902777 -2.284467266895098 0.019203712938734182
H 3.79220530356578 -1.8635420818771875 0.09446981825646297
H 4.137245732644711 -0.4190309579999044 -2.8894238079827796
H 1.1398509674075252 0.18111571824052164 -2.3368874049447426
H 2.282840439948393 1.3449930589898549 -3.1715509379522384
H 3.664264272414624 1.4658964278694653 -1.0637416180095605