13

O 1.492034638700668 0.23626489153217706 0.9032372369342243
C 2.5307670871915 0.0628118835695605 0.3176221660880855
C 3.0714838632340595 -1.278802139023954 -0.14344500770099472
O 4.423792871123627 -1.0996756456906607 -0.4982496616037054
C 4.69678569005095 0.27116406436060314 -0.5680732265008376
C 3.9247895456247157 1.0822329238151778 -1.5282027942926795
C 3.54201392328983 1.0783063527178016 -0.04838063788799163
H 2.4794526344680543 -1.65922531581455 -0.9881994274065257
H 2.9990799686923424 -2.008155894085184 0.6653151147443667
H 5.731550481918874 0.5087799028744772 -0.3340921605039724
H 3.270362521745791 0.5661104825451951 -2.2345803147096768
H 4.347709897876114 2.0043775613761396 -1.8918670673872369
H 3.614529151534849 1.984747415217378 0.5216267104336358