13

O 0.9718254359966293 0.019899686272091432 0.04193907524982886
C 2.18350140872587 0.02103037898568672 0.06383361918711059
C 2.9745438003235365 1.30604204335608 -0.009802354961454455
O 4.250447627534315 1.2012215590583961 0.5749507643636552
C 5.029713194270934 0.1675755115368547 0.033544953119681135
C 4.310914075648332 -1.1457531291580563 -0.017026163223064418
C 2.9758655289171196 -1.218754014584394 0.06934493401076537
H 2.434455124580625 2.09208803067148 0.5158910587562605
H 3.04284402586351 1.5969563634653663 -1.0699994715804144
H 5.919808685362778 0.07563112731276153 0.6563209928425578
H 5.3750826143977575 0.4228519580208476 -0.9902009426174366
H 4.913831755123107 -2.0410122258395607 -0.12144684604177225
H 2.438275978290389 -2.1553924963166113 0.06795430945495443