13

O 1.0935657918672912 -0.15752689821120255 0.12433756862266862
C 2.2803477762137185 -0.03168236993333709 0.08293422225736402
O 3.1628745859035288 -1.0774373542042814 0.1331723121700139
C 4.435685625719001 -0.3726145961883113 0.06045255758190913
C 4.194273551592221 0.6499603246429521 -1.0583127189546526
C 3.1779314120736646 1.1779324206122401 0.0021390808539521198
C 4.240454582853607 0.7740837945960788 1.0612130668991784
H 5.247818672196477 -1.095442479035054 0.0842810521257209
H 3.801140718609605 0.26619561549485793 -2.0014086961836823
H 5.023358291403632 1.3314279430995268 -1.205889355911189
H 2.6854335609173314 2.14327818341223 -0.04985764479269202
H 3.890634829662951 0.507352830188803 2.0688428080734034
H 5.077624354637094 1.4649956602380025 1.1035702547575148