11

O 1.1220536294846377 0.1693862121381534 0.2898220009090693
C 2.2531622188398512 0.047208840723280084 -0.025063505551464794
O 3.1120211252873387 1.0024554768169147 -0.4740239343466487
C 4.18268541820408 0.0435261417923301 -0.6638468145568354
C 3.291222942586239 -1.081903842794774 -0.10135257997349366
C 2.996081173957783 -2.2204603238761345 -0.9213102520207925
C 2.7437466914515483 -3.1656683754548887 -1.6239976065341084
H 5.057456882445327 0.30179499741742444 -0.07132407398694798
H 4.428288966891115 -0.06066852678109413 -1.7137881202120495
H 3.585476578105241 -1.384264321808909 0.905089597213331
H 2.520103695190987 -3.9974381612779784 -2.243076445892505