13

O 2.124850658923335 1.0052782477555664 0.48850663332623295
C 2.0442182833400575 -0.11262781410402159 0.05106497146996012
C 3.159120968870128 -1.0777941702357745 -0.02194939361588113
C 2.8396742343464796 -2.534338130984561 0.15153233689875334
C 3.1542248792503678 -2.0248969365669516 -1.212152523074916
C 4.397388963909574 -2.3388176095118114 -1.8483013011257345
C 5.438157122051668 -2.599515750272055 -2.377921186258019
H 1.0692584003559535 -0.507659941766976 -0.3263532362631398
H 4.121925972242902 -0.7125353008428948 0.31868836152049673
H 1.8139525691957925 -2.8042777393753284 0.3561113534398771
H 3.58488683671697 -3.1392555539914206 0.6515056927620378
H 2.312754947934667 -1.9198399600891458 -1.8944441408889294
H 6.365577250019374 -2.8333999759419664 -2.8466237085653243