15

O 2.197698711506158 1.0743674136340895 -0.7412356122661182
C 2.5285325893583437 -0.08480137651586259 -0.004177692916240076
C 3.0734377173730354 -1.1102507033128042 -0.9474484385251273
C 2.950377521908595 -2.5587512780475974 -0.603336522251764
C 2.1112070267038883 -1.9717727936323537 -1.7220525912790583
C 2.40417525003622 -2.325312359319067 -3.0772023786976397
C 2.648992071438915 -2.632381585927807 -4.219067581962313
H 1.9281351308138888 1.7627830964549898 -0.12812012748660792
H 1.6483680561040337 -0.49825115239645024 0.5090992218123879
H 3.282708463535438 0.14377196873629053 0.7565489111271594
H 3.9726731626091856 -0.8139626394124099 -1.4778904592683952
H 2.421770106558737 -2.8219339803491166 0.30999269051665457
H 3.7525167510652584 -3.225794657754815 -0.8857776855591234
H 1.0606543163157158 -1.813970848255833 -1.5021305117862032
H 2.8639015688711837 -2.8925107102236645 -5.2232366143801