15

O 1.250640322073584 0.6267570784681968 1.3140054128969962
C 2.188674140035943 0.1742187098636493 0.3656636607147946
C 2.9664918638259836 1.342040408019838 -0.16967213679426532
C 2.3523047424369534 2.676974650057357 -0.3215879587741989
C 3.391123326538925 2.454846312751308 0.7736819922209346
C 4.7285709662850754 3.032853481718596 0.5753052987099746
O 5.259232967162988 3.1663207411417202 -0.501294965254869
H 0.7575133333140296 -0.13425468930648068 1.6454103902875283
H 1.6886396705217102 -0.33383083393586016 -0.4754044431154492
H 2.8852659541169667 -0.5511621283272984 0.8140487198496635
H 3.723940667271805 1.0834879714948376 -0.9086785181619474
H 1.3353815808603773 2.8102361181064652 0.019396886368218763
H 2.6801917008954272 3.28789570647442 -1.1522183576647669
H 3.026278374079517 2.398629051064702 1.7819713437538365
H 5.2556598675688155 3.345292817072689 1.4971981860769106