15

O 1.121930052238934 0.39814557085739555 0.12480061799531994
C 2.510511245470356 0.17425399444706227 0.22045817964335465
C 2.980370941577446 -0.7839216475553994 -0.853505405879055
C 4.395146394438661 -1.418590963827112 -0.8010776035571849
C 3.7812989901263303 -2.8341429115164827 -0.9904382903248906
C 2.434691973209084 -2.2032858065209044 -0.7159190675810376
O 1.3751148162517375 -2.6260610977326033 -0.3501878859501479
H 0.6969405641780657 -0.4680529188682727 0.16109239514685794
H 2.7946316828849804 -0.2128789256479151 1.2042046196264218
H 2.999879194831372 1.1520251841848208 0.1038256244705778
H 2.7438752940268265 -0.3887647869094104 -1.8414002274138497
H 4.8475155763732865 -1.295009414386449 0.1812792803132589
H 5.091764236148655 -1.0800080778848637 -1.559053718869023
H 4.0892718179225405 -3.641123623284364 -0.3296799173182835
H 3.8478525721442236 -3.1782599051950298 -2.0298582919383694