13

O 2.404353775692819 1.1643512761504942 0.02742154480136933
C 2.2082756575652005 -0.01987639430553544 0.036615269045351576
C 2.856154907420663 -0.9778208790480574 -0.8624106220269337
C 2.6422585385738766 -2.3068774332788253 -0.858085126548881
C 3.4816882666150257 -2.9430254419339 -1.9085309732557834
C 4.208499545671572 -1.7910766739452564 -2.508960146644241
C 3.8427994996949977 -0.6577250520252307 -1.8925396255423352
H 1.4828894477608352 -0.4795626456215067 0.7460410655218035
H 1.9612676236656752 -2.84509588022291 -0.204131410666521
H 2.8727426505577216 -3.486527729330281 -2.639455537316606
H 4.16107172994559 -3.6974561091757328 -1.479329004914899
H 4.924965472345005 -1.8779553341879676 -3.3218563619385506
H 4.189067389421008 0.34509940120517923 -2.10589849014617