15

O 2.4817761174012234 1.2090769013912317 0.044479104657541124
C 2.235912019257735 0.04368032346814184 -0.06504885815306309
C 3.079188011530897 -0.9725942493164065 -0.7811098608653929
C 3.4793687919698906 -2.0993635810648543 0.20222531256675697
C 2.7045265459923646 -3.2849611905740246 -0.268099422723889
C 2.0362627391840853 -3.04962884456371 -1.3864858750735785
C 2.236260791718324 -1.6476951319135134 -1.8928438693211516
H 1.310066890896661 -0.37558133741567185 0.3942476965132615
H 3.942548366850503 -0.4467461798657038 -1.1797603612441534
H 3.254469144621671 -1.8482612666282698 1.2465694221507173
H 4.5597263756704915 -2.2804812332076034 0.16907433706248265
H 2.7072270182166034 -4.240646369643255 0.2584513797291638
H 1.4245592736676473 -3.767770604798471 -1.918436539982057
H 1.2887810139663762 -1.1329110186751588 -2.0657330914641334
H 2.7660116293553423 -1.6381197865055177 -2.852043885359398