15

O 1.5213599878156063 -0.7350245215308266 -0.6215420473794462
C 2.3723509218090375 0.15020836064282425 0.10721072511036167
C 2.8181546001746036 1.2405418367990457 -0.7934088495580204
C 2.702961843839317 2.562713881981168 -0.5788708555035068
C 3.2961225086452046 3.2916726623843124 -1.7016131869385571
C 3.7583638792515384 2.4084591198507255 -2.598863867069961
C 3.498230973999247 1.028322659883761 -2.1081371376580393
H 1.3716266453099362 -1.5108049942586512 -0.08432646688216254
H 3.2444112792031077 -0.4004308741100905 0.476441259192528
H 1.8493648574945722 0.5703727067326063 0.9748142416566865
H 2.251164945456416 3.0340677950414974 0.288328151733178
H 3.3402208822476305 4.365447056133126 -1.7796089128868362
H 4.233981662095983 2.6367094216996585 -3.5407640295144476
H 4.415875694834265 0.43679531863341026 -1.9958458378264563
H 2.8593245616905394 0.45215595814395015 -2.79128197000691