15

O 1.62208993587392 -0.28274357448260734 1.1843445113404172
C 2.382506059683224 -0.08226359897642735 -0.000897617721704937
C 2.8906458591403994 1.3188378203118196 -0.007395886644601344
C 4.164707295725294 1.7132289025367524 -0.18677607336078175
C 4.223726701925532 3.207675724271467 -0.176738377375066
C 2.7995682811331424 3.6080485416784147 0.04296661105577575
C 2.0447904285079805 2.5058429559842237 0.1356063032913037
H 1.164457343095853 -1.1189193372436004 1.1012430677184755
H 1.7577347370954983 -0.2425959085580328 -0.8824266549407433
H 3.232582754535293 -0.7742223151112609 -0.05320512365018863
H 5.023779392079185 1.0742632984886575 -0.31928638071294735
H 4.620646333343199 3.609800964967526 -1.1157460754457904
H 4.887382483566773 3.5784558553566392 0.6202045622291118
H 2.4660035251114953 4.625678027684486 0.11450308895457238
H 0.9802280134171018 2.466665630376416 0.31600359415579826