17

O 3.4754782534146456 -0.2404287538165663 0.8340061363651368
C 2.4313742121347603 -0.06137597177342206 -0.09719672037276726
C 2.9745651891873974 0.6680390152482992 -1.3049916271540556
C 1.8488271237016167 0.8669310092461604 -2.35228995307697
C 1.4647688733086583 2.305546308306015 -2.179809020955791
C 2.320426111907932 2.9729175341228937 -1.4180933723924924
C 3.4407282961376673 2.1005242110432794 -0.9383563427008432
H 3.1098104784224168 -0.6218912372898907 1.634074469693801
H 1.6044045859804423 0.5193792153849449 0.34021937175223
H 2.0292540638106717 -1.0332525571756552 -0.41885626724179437
H 3.798825125115338 0.08432858098566429 -1.709218367031889
H 1.0196261680045275 0.18361791101222322 -2.180925731623389
H 2.200538314998903 0.6807662177107338 -3.3703181029668983
H 0.5921561467171382 2.7437825606922446 -2.659842332236372
H 2.2490967071386203 4.021014326968055 -1.1689060801999835
H 3.6375030723461426 2.1800571255239927 0.13329754545304073
H 4.37398039394848 2.3637177165177987 -1.4455667094752915