13

O 2.786567538457216 0.8717993325888882 -0.9355022887875284
C 2.546413243757722 -0.22490986984504308 -0.08452313374533058
C 2.9245482780012475 0.18555711499211705 1.2985864383784622
C 3.421818056398239 1.319527363571022 1.8232470935163247
C 3.579378970719662 1.0739893424096327 3.2243389823999133
C 3.1576703407597613 -0.19789393051288062 3.4300850194459067
O 2.762271074231752 -0.7541775190671016 2.254820769213455
H 2.544760670485467 0.6160390409009564 -1.8238998389407055
H 3.138059072912759 -1.0983334656316526 -0.3815806246853761
H 1.490167567331309 -0.5182735419862273 -0.09520803795506158
H 3.651596162314312 2.22398316229974 1.2794936607470346
H 3.9450866237177977 1.747958182795309 3.9782145556377824
H 3.0849549706833983 -0.8231781574757462 4.295782279737621