11

O 1.04651807089161 -0.06895948131622207 0.3965310763352743
C 2.2075703104426263 -0.0812714589877655 0.07294221546404976
C 3.0181303367481953 -1.2584556891530516 -0.12819017904157637
C 4.336396538270579 -1.3800547396324898 -0.4947426082608407
C 4.61143420950451 -2.7694951836447874 -0.5371902486710244
C 3.443667432407009 -3.3852691724225434 -0.1987772333250425
O 2.480423287553961 -2.488773638853249 0.048754651526661384
H 2.771156013532057 0.8600596181872594 -0.10284371947586649
H 5.011581269411949 -0.5594910388345888 -0.6951657664850391
H 5.546884148702422 -3.2502711589801647 -0.782009588161404
H 3.1689521896477983 -4.417573241267664 -0.1030262864011399