17

O 1.08232713352911 -0.38354375672358537 0.1273427266290069
C 2.4643223755986403 -0.15839637883744254 0.020819098649997272
C 2.884780017199863 -0.3409838959853395 -1.420050326179834
C 4.326386186982104 0.11810061932190583 -1.6756441452634043
C 4.817221804543395 -0.8870158730957185 -2.707808850363691
C 4.096528470887029 -2.14664230316316 -2.249578089189807
O 2.8314729674476053 -1.709122588659744 -1.8090988323998405
H 0.8393321144659374 -0.41473369658233544 1.0519157257228686
H 3.038808795383951 -0.8657173733330934 0.6392368580991354
H 2.7222220139683984 0.8566805351979196 0.33058065988373303
H 2.1764247894381024 0.20796057075331628 -2.0518606893490383
H 4.907846330339739 0.040457663355256385 -0.757392845428862
H 4.371586971014265 1.1566906258170973 -2.0163920783201035
H 5.909219892100366 -0.9977373932314301 -2.7161036155868836
H 4.494804052282281 -0.6017184383586399 -3.710145627968176
H 4.648752489087538 -2.632185992515139 -1.4379035021491533
H 3.953000903954111 -2.882807799961779 -3.0507536805687527