13

O 0.9228701496223114 -0.4316232255503192 0.2923507080313238
C 2.0477102803226694 -0.20009284447800924 -0.03264664621688567
C 3.2030692964928185 -1.1501949239069151 0.1886654718446273
C 2.8550812087953696 -2.603989368263022 -0.14033601125773792
C 3.5593775002656014 -2.764896322191693 -1.4604978112909386
C 4.3367945354672335 -1.702406101926772 -1.6613797866515152
O 4.286232565261622 -0.7662430484583879 -0.6711517925474983
H 2.332707395698996 0.762415834297071 -0.5179573529540041
H 3.540267253967161 -1.009292640978783 1.2249112001923759
H 1.768683097156948 -2.7381942401585775 -0.19417537473337215
H 3.235906274633229 -3.313517691097103 0.6064240089006763
H 3.4773291151218446 -3.6182224158265917 -2.1163643359864155
H 5.0207131886083625 -1.4756227799227295 -2.460882617354396