17

O 2.5717052876357758 -0.9349700401754778 0.9638220987438391
C 2.3109723835378184 0.07086936888325435 0.0020288200044650635
C 2.8540267347523134 1.3755556988368807 0.5242653032896544
C 2.6441308814707134 2.5672670282562384 -0.4081187162349564
C 2.755603593213271 3.7338351744457725 0.5600707609282918
O 2.181584428798184 3.283487817084608 1.7713672392599435
C 2.1804014115969097 1.86212604514245 1.811641162442811
H 2.2007397726973896 -1.7658128790644314 0.6475982990185992
H 1.230939982052947 0.1778124903196569 -0.18209525127948892
H 2.788418323250704 -0.16847238844010815 -0.9582624172955573
H 3.9354100595363084 1.2582196012843416 0.7075843783429941
H 1.6340251409091509 2.5260665516828276 -0.8428623068368652
H 3.3707825372656357 2.6088675390302187 -1.2264080962237225
H 2.2112712356656417 4.6209212518794365 0.225128456711338
H 3.8055349044176827 4.000295183861809 0.7110086525892242
H 1.1381793000938931 1.5094374749221116 1.8569038716075108
H 2.697748081604358 1.512527086685967 2.7053422199039