15

O 1.098369212993189 -0.3092159788591998 0.8408379250025005
C 2.344852268040856 -0.024633051406482302 0.2228302553151941
C 2.8211325100399556 1.3015718066673956 0.6629036023208796
C 3.96268944405803 1.5803927686257473 1.2814059602160166
O 4.190400493587126 2.8927471254253985 1.5330236874474208
C 2.962766198308562 3.582172165429228 1.2084419009582765
C 2.110637093833397 2.602710327200723 0.3922691476889929
H 0.7085205609259141 -1.073768153701553 0.4079858988980061
H 2.2241795698913167 -0.03229415615968074 -0.8697783234680312
H 3.091816632817274 -0.7893597560486538 0.4759839463672144
H 4.75009820333054 0.9109201906243953 1.5992260581737556
H 3.225938651584725 4.491779329527432 0.6800509691486771
H 2.4791795118191575 3.841534111456788 2.157604636695573
H 2.1110017037261217 2.835937839602557 -0.6805932346883969
H 1.0722990567722117 2.5939549395390142 0.723833744380782