15

O 3.409805372190721 0.3090285699676487 -0.9330363628377221
C 2.486391415722416 -0.06264174345291233 0.0610268949142685
C 2.978684732798767 0.45957690722469613 1.3982833396562493
C 2.038754902942353 0.11335231997978856 2.5561309902416594
O 1.4388700760554511 1.3341904006224294 3.005230872898751
C 2.0765282681670287 2.3407906400362046 2.3679556994124944
C 2.9812348446632324 1.9659243677462739 1.4705906772330253
H 3.0782441476693942 0.04260037570247661 -1.7953506660980314
H 2.3786997076591514 -1.1557075115371573 0.11238610290448842
H 1.4905735125302804 0.35725744682005334 -0.14493616893933284
H 3.979342654621382 0.04011289424664249 1.5629902265337097
H 2.5727289664222504 -0.3287163571487986 3.401913961730586
H 1.2351044153543531 -0.5742715522809964 2.2656478515447422
H 1.7694572743932835 3.330112796385772 2.6674937280867144
H 3.5797251702978614 2.618225256959994 0.855411127798652