15

O 3.000986618218246 3.4799554423303203 -0.32993298494564943
C 2.3727265795910566 2.4521146974575045 -0.2408802900355938
C 2.9704518467541385 1.0868564540728223 -0.25038968505281606
C 4.475583485103422 1.0789776813909429 -0.3834486065717051
C 5.295109467662928 1.5312436395964715 0.8240797310696311
O 5.97643636637315 0.2685021231264412 0.907103461476722
C 5.192624546429988 -0.26016082796049267 -0.16693987393847326
H 1.2672531969624778 2.4823594693220947 -0.1530310315610024
H 2.485554787074848 0.5136374337283558 -1.0527434670349578
H 2.657217542590645 0.5833356365925293 0.6758722026542373
H 4.7682056201940775 1.5817892697495257 -1.3061593557537035
H 4.709593408139381 1.7422809897201867 1.728228480883166
H 5.992244265013077 2.3663494816890167 0.643879717480361
H 4.555193292195916 -1.0865645462386462 0.15786498483095357
H 5.816893967333701 -0.6168187904539184 -0.99679823462551