19

O 2.451974233462495 -1.3016191425105446 3.309045129201903
C 3.4911819077328197 -1.6819131323518004 2.4255964020381136
C 2.886703872025927 -1.8535279511775231 1.049962939507864
C 3.9067458228071383 -2.188304072775727 -0.029618457742270822
C 4.584120625642166 -3.5226553460602483 0.1365567991195635
C 5.847206929772615 -3.8173937543000327 -0.611654402164307
C 5.887850769035241 -3.6323734981067415 0.8714674497748636
H 2.811215517452198 -1.2481352733367657 4.201177061996842
H 3.955569282089189 -2.621844258829204 2.754078817818388
H 4.278151007237231 -0.9241487480399808 2.39748212942315
H 2.374288635266681 -0.9162466993421213 0.7983298175269936
H 2.122293725061293 -2.6313861511703256 1.0947531537879123
H 4.676080330449777 -1.3999316556905514 -0.08168551323843466
H 3.39804860537005 -2.167544893905413 -1.0006761040188359
H 3.906501946966086 -4.352914661673211 0.2632781826508039
H 6.2566748779044215 -3.0350603595084036 -1.2321193976794353
H 5.988048918700242 -4.8206301231856 -1.008378481904405
H 6.324526850051125 -2.7090434416177303 1.2567943976703493
H 6.059563517252153 -4.50178402315811 1.5013299585165971