17

O 2.601133809541425 -0.708928658376369 0.8575735300621689
C 2.1358066630494923 -0.37180701809478395 -0.19602149656835693
C 2.8307820283535174 0.4762267398336793 -1.204494190575926
C 4.2250717813209535 0.9395170979400583 -0.8060763502991406
C 4.883788814830228 1.7520784354107488 -1.8863025684785935
C 6.380594260443241 1.8204950413062024 -1.9550114240267678
C 5.610733814371312 1.0599723452006315 -3.0007828538884103
H 1.1136639438389917 -0.700626034732248 -0.48441371069126576
H 2.1707707685598248 1.3324070978888827 -1.4165681820392217
H 2.8559894476162877 -0.08858688526296546 -2.151344464141517
H 4.8325507698044765 0.06641655571075139 -0.5783933244369373
H 4.159567311520046 1.5142842263954048 0.11628665235092024
H 4.364003176592957 2.662582442635606 -2.1523985282435065
H 6.9463797511112375 1.246565617573803 -1.2274166752304134
H 6.840269671201535 2.756045908924413 -2.2389413171884573
H 5.6635341595256365 -0.013991454518766412 -2.9741564808814696
H 5.558701487525888 1.486118234778103 -3.999628542748673