13

O 1.694177763786137 0.9313018785058523 0.5529173169166688
C 2.32153981836437 0.11424940244196245 -0.06981362622686263
C 2.4109101444275898 0.2026775335088496 -1.5224178769969265
C 2.473271116268788 0.29602075311952275 -2.71991537329688
C 3.032342311096204 -1.0116489388928498 0.5648611579808307
C 3.1313746374580584 -2.3432423748618283 -0.12881338911001952
C 4.348055613759881 -1.5079612979685926 0.0023972141068537857
H 2.5261168903484026 0.40222192162933906 -3.779873138518683
H 2.9256791023196116 -1.010655379667885 1.6509109685381924
H 2.6737035449014717 -2.4250126029221697 -1.111587267324322
H 3.0366957795901754 -3.217974434212414 0.49944706344889533
H 4.715525174481859 -1.0084795815494312 -0.8921416881572254
H 5.1030239047604615 -1.78531494403801 0.7214180396521491