15

O 2.6316049106412875 1.4653734730770722 -0.2956089246263166
C 2.2941669852822466 0.1039072074326046 -0.09606462476479613
C 0.8473597240793305 -0.07459696696778922 0.024587426477078705
C -0.3367783593672576 -0.1998880442198376 0.16822752064966157
C 2.907571535059069 -0.6708153325163014 -1.2427699251873863
C 2.3790105062764764 -2.0235140056582077 -1.6365343307406022
C 2.190240446044685 -0.8419180385095273 -2.535799914581667
H 2.1955396722231604 1.9861197671690956 0.38681112157013153
H 2.757048656995833 -0.25269922442953086 0.8389866775414729
H -1.387104362355709 -0.3008105656593632 0.28551642015591977
H 3.9806775417770255 -0.5388709262373902 -1.289204008812592
H 1.5115109297279823 -2.3899511607810044 -1.1103194413658921
H 3.100442945082408 -2.77459317851188 -1.906079860553661
H 1.1877555198213894 -0.433517285381558 -2.6166981097516593
H 2.7738748763575716 -0.7822759260921983 -3.4485504212965328