17

O 3.8636616694826658 0.3456702073606306 -0.9722809626481784
C 2.8096904702209793 -0.19393425729236957 -0.21404109986999523
C 3.1576995521795723 -0.2386580213695053 1.227106810566496
C 4.313182415696598 0.15875241528201312 1.7513913850792169
C 4.6832256775158845 0.09082048144229678 3.1771718747692104
C 3.999429181553313 -0.8157608440861605 4.144266056013683
C 5.401852505746716 -1.1214164905576187 3.7157604326050597
H 3.6026541886680596 0.3646682380071128 -1.8928525915883712
H 2.553473305148621 -1.2114373995969705 -0.5638164678002929
H 1.8915381570196652 0.40860416780831615 -0.3346682060272119
H 2.376865514336964 -0.6436575001798326 1.8743426370531102
H 5.059854003455039 0.5665957426457238 1.0765829726516123
H 5.033830140653646 1.0300874982040316 3.586913735532741
H 3.215123381607164 -1.469118772157003 3.7732667410301066
H 3.8348330164768023 -0.45622779568346883 5.156522666781949
H 5.55074231646552 -1.9462502982245988 3.035332048259874
H 6.206944252079771 -0.9659850941659489 4.431396004634556