15

O 0.9913245207998138 -0.49447905568417616 -0.17696434104299258
C 2.254494524190452 0.07428003882856873 0.09510003272514925
C 2.714927092782966 0.8535395011329729 -1.0344023187842701
C 3.1159774855476243 1.5005299390128315 -1.965701322022259
C 3.587146366675403 2.275310488280932 -3.0723756865846146
C 2.6527284981123844 3.253219206827828 -3.7531270983419103
C 3.7827205787139095 3.769757211242775 -2.9238826008704297
H 0.7253024897494229 -1.0085448975506541 0.5914639122350215
H 2.9957754882382157 -0.7085736032435863 0.30603475558079596
H 2.209510225105682 0.7205099269006568 0.9834095588929198
H 4.285793086972905 1.7643811074039875 -3.727361146007196
H 1.6524665586924254 3.3216470202809862 -3.3483019095270476
H 2.724343515662286 3.3290831643082806 -4.828068126296087
H 3.5531027803140005 4.1920401235817115 -1.95837307635823
H 4.6357674253583525 4.200872727408969 -3.4240548645100897