11

O 1.1193758498249344 0.3052221609004388 0.479342247480575
C 2.1980443851474694 -0.05479817983909388 0.08892044166054225
C 2.8844892273164398 0.49855215235782774 -1.0436635777160983
C 3.492655305347537 0.9402107689561097 -1.9817704661859477
C 4.232727389368665 1.4539255120647667 -3.102805967463269
C 3.5888678100621254 1.5855989607810792 -4.417880176134077
O 3.8300033553441253 2.720117492831796 -3.619838478345293
H 2.7435272209385144 -0.8718488439883272 0.6000546364106083
H 5.305737598708138 1.3025026877649892 -3.066726259981834
H 2.541258800238582 1.2924919168887574 -4.522273687775759
H 4.20877616386032 1.4795865322466004 -5.312452616098419