15

O 0.8264993304486549 -0.1604206262473059 -0.21942200665180903
C 2.2409509344284033 -0.07393132179848348 -0.10989954270603763
C 2.8911098937977524 -1.3541976433869283 -0.5143295144821043
C 3.6906669305615147 -2.060440577268713 0.27304622852440114
C 2.6510399627713728 1.0701549981427376 -1.0055794494412629
C 2.7240706992980646 2.4304152439525777 -0.4999883332318648
O 3.8994105054484836 1.6643558272800691 -0.7286851092152554
H 0.5529759656035262 -0.9910296341874574 0.1975719333424932
H 2.54269562350925 0.18219788338718904 0.9086531331539304
H 2.6523782238748916 -1.7057812513883273 -1.5172496479803974
H 3.9389828328444874 -1.7257204206650092 1.2723905228326646
H 4.148352756951814 -2.9872956065730776 -0.058597343423314296
H 2.432441559396156 0.9119276478874189 -2.0726445464678616
H 2.4840829855146933 2.616274881097798 0.5407978352742073
H 2.5740783355253574 3.26704101528189 -1.176505923014279