15

O 1.2288926975545997 0.4832865981601389 0.1460119774839546
C 2.628891497862809 0.3158815547700801 0.051172750685881924
C 3.145646661667868 -0.5138633535859296 1.1877934261904015
C 2.3590082072858864 -1.054601482790008 2.109961683320376
C 4.6221509028031456 -0.6564571171870902 1.205502503276386
C 5.2884993778450395 -1.9248831377377202 1.4726208017105247
O 5.200791952748532 -1.4292868965947403 0.14685977790348315
H 0.9205751550453702 0.8977628409862028 -0.66092109801538
H 3.1465005544259963 1.2976977242710925 0.07134879890608353
H 2.913714531918192 -0.176208386622596 -0.89017384863412
H 1.2889769377206535 -0.9082459864016206 2.079832616280614
H 2.780369085747955 -1.6379418921045366 2.912893336121034
H 5.173306248905546 0.2562183004869949 1.4143935058704526
H 4.681729051352447 -2.8028348253560726 1.6774325664480145
H 6.2840195805030366 -1.9286274576328037 1.9139630983230067