11

O 2.6666406548284107 0.076394584980807 1.2482507680533623
C 2.523335774240631 0.05894970235733014 0.05780595905725805
C 3.0644890530686677 -1.077938147339054 -0.8018277080165662
C 2.0927713711569456 -1.638591683592859 -1.7195847722964759
C 1.2731246318641298 -2.1000092014777327 -2.46761039679017
C 1.8652520565056188 1.1394760492826401 -0.6528780257739133
C 1.3462819743544687 2.0382673067748813 -1.2483146796405307
H 3.436644369883463 -1.8482914111822006 -0.1168568293431488
H 3.919261009855552 -0.6894513553731924 -1.364320845699341
H 0.546819778705921 -2.510250045838874 -3.125551013098379
H 0.8718506299924961 2.8389414874796075 -1.7639652973925983