15

O 3.087262838190807 2.389918487945133 3.2262809800182564
C 2.4854980368993282 2.374332311479551 2.1823883221020344
C 2.9730566272611543 1.7448610245636413 0.9210778122282205
C 4.368653638194889 1.1532847435065305 0.9951186099183444
C 5.480228600292146 2.203848418792045 1.0716206389470535
C 5.5149692791051415 3.083760787542868 -0.07939327282566065
C 5.52674973498524 3.802621746913266 -1.0503984740452412
H 1.4774533269124859 2.840840198870808 2.1093433294394837
H 2.9065632746954027 2.492052927159937 0.1188507588475023
H 2.231393046682848 0.9732405559399854 0.6473251330389026
H 4.541058195348068 0.5189845037708688 0.1186281822972765
H 4.444549071538318 0.5106575562242786 1.8754459417419995
H 6.445632771334287 1.707478575124334 1.1749253032778137
H 5.342088380602585 2.803573818136863 1.9813426483826078
H 5.553982662502624 4.442090019194283 -1.8987709825734849