17

O 1.1377298707614734 0.23732980556689554 0.7163985864639554
C 2.5347422524041656 0.194200860230666 0.632504534031557
C 3.0786333030874773 1.4041525222447648 -0.1452900779453844
C 2.552754345191865 1.4293143620104292 -1.5392905960810215
C 1.6375621349245943 2.2714023771475365 -1.9892980524315138
C 3.1219112806247407 0.1412722476603956 2.0139998869905047
C 2.4322572503308137 0.19866351546379463 3.134979631737848
H 0.8079131710086618 0.5089538779513991 -0.14828717531226468
H 2.8574316225001155 -0.7161889049849292 0.09772561583806165
H 4.170411030262461 1.3492600273820812 -0.146259836084171
H 2.790540300391627 2.308510004840813 0.3939076581500728
H 2.9330540419712836 0.6500456426189583 -2.2030843006250347
H 1.2431449336327751 3.061949041857946 -1.3629631602936156
H 1.2748802390786034 2.224675731961649 -3.0105596774132564
H 4.2071832028698095 0.0441831109496691 2.034939393731037
H 1.3531241221980355 0.28157227529939854 3.1233850263932936
H 2.934557514413282 0.15328057469581166 4.099193685526758