15

O 1.0409522009410332 -0.19988563231525244 0.06250333257514182
C 2.4488825427792866 -0.15602237445926267 0.083761726209806
C 2.951152034534931 1.0412942005562136 0.9225267388032014
C 2.3963967311805785 2.2848513770003387 0.4158455202765019
C 1.893863960133886 3.286822456914188 -0.030564858779682347
C 2.941112310117514 -1.4353873601376268 0.6803539845967197
C 3.8741272752874973 -2.2002828775974512 0.14224515886535033
H 0.7338023406374959 0.6772733229853788 -0.18138666545713258
H 2.854328680092053 -0.047835328931866705 -0.9317751799154098
H 4.038088340163942 1.074995875378143 0.8993125190093267
H 2.645870697076447 0.8980891413055422 1.9584308153182661
H 1.4664860570718494 4.177289220484079 -0.42055136998821735
H 2.476537914396634 -1.7154772302114976 1.621002724851834
H 4.335009169496099 -1.9459804526968512 -0.8071063416288513
H 4.219727563641375 -3.104914533372127 0.6169761235061577