17

O 1.9216625097587294 -1.2940014039584027 0.5338606300049457
C 2.5934629843420742 -0.2806497273569799 -0.20004837993269883
C 2.9099023156915687 0.8443390568676149 0.72727233317205
C 4.13520335360786 1.3380223527496151 0.901780958930593
C 4.465197324651939 2.5018539660685404 1.7939479781932353
C 5.027730806536481 3.6580208860639054 1.0270746270580775
C 6.2417007243416185 4.163147510865405 1.199009333055064
H 1.5688563565800373 -1.9231053400939484 -0.09035892443699926
H 1.957997649209635 0.08958389884877108 -1.0062785495072755
H 3.519849577093091 -0.6633920206248534 -0.648079753498475
H 2.0722070824055976 1.264339982518001 1.263633763181088
H 4.962956598910381 0.9015384958423875 0.3618947466654181
H 5.195803258836772 2.1857820168244855 2.5458095151809714
H 3.561582764229542 2.811278620618523 2.329333268011614
H 4.3695202860937465 4.087456672155648 0.27291028298547065
H 6.921024707101077 3.7558327145589474 1.9323251622948907
H 6.588941998820662 5.008423155618022 0.6066506792509572