15

O 2.9925465238073223 -0.43038768920591985 1.0681227940639126
C 2.305669000293085 0.047932464896276505 -0.07738928063456044
C 2.68429030371617 1.4714127215337154 -0.3159722606627513
C 1.7662229516126526 2.425832440735384 -0.401337934314994
C 4.157394312486051 1.7630643469427527 -0.4308361712791973
C 4.781670726016226 1.0610200824681455 -1.5440847274933895
C 5.292877698314102 0.4840451820097781 -2.465532752385696
H 3.0759943274710344 -1.3823827690544126 1.0046151227221587
H 1.2215962338032118 -0.039153459044121854 0.04746351114610639
H 2.598425544111745 -0.5422917518601804 -0.9592129053732785
H 0.7067508711550042 2.2136229230713353 -0.28464933733040987
H 2.0421754760931927 3.4557804276919586 -0.6152089973296422
H 4.6447795326969805 1.4561646376602038 0.5007623718450452
H 4.312255775018745 2.839380355357873 -0.5413435828385572
H 5.753786591721053 -0.01895497712638273 -3.281482124439259