17

O 1.6591368999580578 -0.5873805305053492 2.76300460549136
C 2.240373907475675 -1.8720676926213073 2.6727429999571233
C 3.050300566246245 -1.9421097840443926 1.3882472795381047
C 4.20063403703174 -0.9946485590633624 1.3726577551107957
C 5.467893414810986 -1.3371123372091032 1.1776708132334548
C 6.573486146698733 -0.40100243366251614 1.1674831023952414
C 7.849965305021421 -0.7348564593638316 0.969795457289037
H 1.2038098244786894 -0.5109472423695895 3.6022528119448096
H 1.4606450647275104 -2.6564256289123684 2.650160483661906
H 2.8929057655284183 -2.0770663783538894 3.5291966304257127
H 2.3642215246064056 -1.712823406380022 0.5547147068847075
H 3.399942794088588 -2.964833531130372 1.2447319805263033
H 3.957680061469869 0.05957652764215659 1.5452458295012708
H 5.7186421057478665 -2.3814210576341677 0.9995951126636146
H 6.32081822669273 0.6450647499339797 1.338410940054466
H 8.136831287377547 -1.761861128539092 0.789739026337936
H 8.63691972810251 0.012557106982153165 0.9685663769946813