15

O 1.0150703691187462 0.03444571557596495 -0.031577117737777584
C 2.410945508526393 0.11553377498788991 -0.17236358759764825
C 2.949339737587218 -1.306847897937536 -0.24476077874941007
C 4.386835774617796 -1.3554208374772636 -0.3981653469629134
C 5.587618668224811 -1.3653718176443983 -0.533639676109595
C 6.991657880558992 -1.4265075023119358 -0.6767389245447103
C 7.760724444522369 -0.4386563749953672 -1.1431061678291696
H 0.6512470603402751 0.9186671206412864 0.01777699993252387
H 2.8788113960280066 0.638616830107477 0.673288374517759
H 2.690787019912944 0.6463332924330513 -1.0955725350066556
H 2.4607757522979625 -1.8260396438612079 -1.0805069954668254
H 2.653909032729185 -1.840165178524078 0.6690867529630589
H 7.465144489544868 -2.357568433544811 -0.37325098988111255
H 7.335445429534227 0.5050534822223601 -1.4559249556307603
H 8.833571504986976 -0.5532941060065226 -1.2300995533071069