13

O 1.0453107085434474 0.14178955261818896 -0.07455226043748703
C 2.4500101855244814 0.05815793946702629 -0.01243198998228168
C 2.999901748213375 1.1768846107829054 -0.8946599135704142
C 4.446964135688396 1.2034561278055096 -0.9061430491942855
C 5.65898591649033 1.2045448507324723 -0.909957465006469
C 7.021302184745492 1.2155107177057762 -0.925610932655444
C 8.226520876418977 1.2240513561618478 -0.922690721768771
H 0.6744485822397448 -0.5487177748746356 0.4718740965778959
H 2.8159884221751494 -0.9048639243373605 -0.3733747625047158
H 2.8240445061499857 0.19349786162002763 1.020362783792545
H 2.6214942398132655 2.137438630440944 -0.5328183103974251
H 2.623445839996555 1.0424614949216287 -1.9076366228616408
H 9.297219402788523 1.2353433853372577 -0.9339583811704595