19

O 2.7483254077928345 0.13074232035117947 -1.292932602789584
C 2.09728814009704 -0.21536167542772944 -0.07709902729985717
C 2.5954572594392373 -1.5616998632770478 0.36911645722986
C 4.082991973339312 -1.5896070270181601 0.6927799649860711
C 4.592117469507721 -2.9658252879624456 1.1217752595673915
C 4.020701676979482 -3.42648626639616 2.4310814624293435
C 3.3433459153928204 -4.539388850351012 2.6184311275994046
H 2.4444774368794207 1.0040670160803538 -1.5643134760363553
H 1.011147436355352 -0.25161176590174195 -0.21809508505535594
H 2.308013856842827 0.5388023528552937 0.7000140342340769
H 2.376081138767926 -2.295461008665821 -0.4137490196301438
H 2.026457173748418 -1.8716400601037315 1.2478446425347167
H 4.297875254589344 -0.8598300213279833 1.4850444136148389
H 4.6401650459115436 -1.258109198093877 -0.1882166562230809
H 5.689825192048688 -2.9095744772842767 1.2159381957201618
H 4.373786597851117 -3.6975235837059337 0.35001639330677964
H 4.197223948102903 -2.758735574715734 3.2823880985293545
H 3.134291524844324 -5.221755171559222 1.7975905460405148
H 2.9548378920104037 -4.816627638733607 3.59616347935439