17

O 0.6047757157866994 -0.6698243096429899 0.9158975867965569
C 1.9401434477855686 -0.5037898663240014 0.5132082779958236
C 2.805861801297436 -1.473391931216058 1.2799865040939113
C 4.279029321202162 -1.3668161603803297 0.9124273400107545
C 5.133214116041306 -2.3573306048632006 1.7033271052652181
C 6.547428304139857 -2.276177816586256 1.3802761885077686
C 7.709286996339435 -2.20250454817044 1.0908152588326607
H 0.05253547052525354 -0.054587604617882174 0.43211139001571086
H 2.2803930749460526 0.5262998005860828 0.7053753257247323
H 2.0542241744005336 -0.6888908818687032 -0.5668531064690289
H 2.4405623319617065 -2.4852826372555796 1.091537182076283
H 2.6649732451652106 -1.28589561437874 2.3505459767331
H 4.639879105293856 -0.3595000853535751 1.0984689087537933
H 4.411908087078661 -1.5578873557110762 -0.1481509475903336
H 4.78390318189465 -3.3742313755384368 1.5295920205776827
H 5.01335867293968 -2.1750328157524352 2.782010763034637
H 8.736850844272702 -2.1296605740458636 0.8367870173273618