13

O 2.4780895316654066 0.7628793639604341 -1.4135340865344823
C 2.210308276687338 -0.3997984012612957 -1.4457501312662449
C 3.145778899230992 -1.50563625546756 -1.0376188530826504
C 4.530595635208597 -1.0603983189300905 -0.7275813464146089
C 5.640136599129152 -1.6687247013177837 -1.1224138371494448
C 6.9607314998194925 -1.152287852287035 -0.7505604817069661
O 8.009081700316486 -1.6533318994627344 -1.0551052477068217
H 1.199994272180103 -0.7445035932428636 -1.7654317813971174
H 3.1322647321579833 -2.2856217260411817 -1.8167028575740873
H 2.693529377138352 -1.9777371332117453 -0.15254924123505909
H 4.616153098675991 -0.15697161289467668 -0.12770432148145147
H 5.633297428472282 -2.56972201560743 -1.7355383885538183
H 6.925346701581667 -0.22201865165888918 -0.13526985868095173