11

O 1.0258732050430708 0.3336400764586343 -0.12492306671780265
C 2.074274066595041 0.2947960771664946 0.44217477926210363
C 2.8622039527421124 -0.9949300880045403 0.645494049622135
C 4.292750234369994 -0.7905368400320986 0.5620321217236177
C 5.468979751667935 -0.5577401890810408 0.49580192753165386
C 6.892831595385747 -0.3453691379847577 0.395284264694931
O 7.445072358772193 0.6778307805295383 0.6969909804171921
H 2.5340331715867035 1.2014670464461963 0.8889476368419404
H 2.50665714579339 -1.7387551611274654 -0.07133513809996318
H 2.6133724442425503 -1.3598059428168743 1.6446232299024197
H 7.454498643148573 -1.219771993049537 0.013368027448307254