15

O 1.1678152910088702 1.7743746320579556 0.3706101485732701
C 2.301136015950058 0.9389769249201546 0.22235983819842206
C 2.300144489439529 -0.2700302109618004 1.1553815762916453
C 2.38756746105663 0.11256108313664268 2.5973022813976305
C 3.312218990824641 -0.3370172573598198 3.4265497932383764
C 2.462422561189787 0.5369417269992315 -1.2413342250231216
O 3.0423787800986752 -0.4430968492244393 -1.6217952712254726
H 0.37533644037912445 1.2321224767839833 0.28626889650387144
H 3.1576900641858474 1.5732551835074235 0.45585746435668695
H 3.1285889147998582 -0.9196912653852621 0.8670193177874436
H 1.380343959747483 -0.8346319940398672 0.9731388669975471
H 1.6412690810354094 0.8180734851344706 2.9457402740956855
H 4.072978634444794 -1.0389478203940818 3.1110942256626037
H 3.332518603804199 -0.02543712525743285 4.467743747165495
H 1.9936322799441157 1.2567353155088665 -1.943939640919298