13

O 1.4370289855139178 0.5756643510476763 -0.6794441295229611
C 2.3447878007391965 -0.21701977657735894 0.054469870547724744
C 2.822824249273639 0.5248670782452732 1.213270644848252
C 3.239846375361841 1.1220070146983918 2.1742386934791367
C 3.6973432003445343 1.826338109099485 3.353511677640113
C 3.025221179489206 1.332232119023631 4.616434375548676
O 3.589456697416564 1.2112814142406814 5.666773727809986
H 1.149285956260483 0.065731019355332 -1.4373097399973065
H 3.211726344303239 -0.490063108293948 -0.5563647368104382
H 1.8770492320566683 -1.1425444923599957 0.4034342529997709
H 3.4625124351291285 2.892724158164728 3.260989479276617
H 4.7834937908336155 1.742607591125927 3.479381729738458
H 1.9416440367815329 1.1125209278204375 4.5142683259815986