17

O 2.547716023528195 0.006858323404105804 -0.8356234410613936
C 2.271130768212448 -1.2592291737303665 -0.2642773967555639
C 2.8646842725271866 -1.2822175884587035 1.136679414076792
C 4.351221584066338 -1.165826978201867 1.138312042918107
C 5.1851656373920285 -2.0367453657337946 1.693181201729224
C 6.673179330984671 -1.8933698533533485 1.6911197496303132
O 7.212700448951241 -1.8456172724741484 2.9925899946757872
H 2.238454484572713 0.00863491380507428 -1.744269204699642
H 2.713855623901678 -2.0649506146486454 -0.8608258535271368
H 1.1912351921170268 -1.432503540661568 -0.19577816206059942
H 2.5666443571600044 -2.203738783317818 1.6361791211535968
H 2.4331238019343813 -0.4449445516379833 1.6929405103503774
H 4.76732124204879 -0.29438364987765 0.6261005153927023
H 4.793374962915616 -2.9051902352210934 2.2187822822018886
H 6.962125118622682 -1.0120627241780562 1.1036851916483317
H 7.139727978116837 -2.7685663473495516 1.2201776304545293
H 6.760039235927458 -1.1444158305005327 3.469555934075252