17

O 2.5663876017880543 -0.476168426690784 -3.3998351912260634
C 2.47101878421662 0.13526628358221873 -2.1157659348358235
C 3.005939550967473 -0.8217060816644801 -1.0578126251904199
C 4.497019556349086 -0.9847102017313968 -0.9746784100403889
C 5.178504042695318 -0.48721884951317135 0.04819220554697809
C 5.202627489251197 -1.7598309687731106 -2.0563067114956426
O 5.263288833587572 -1.093009754682057 -3.298076395855315
H 2.239593468554107 0.1479933442193317 -4.058046508593485
H 1.4232344370252878 0.36196263764616254 -1.8860208088062842
H 3.045151948642379 1.0681618556874213 -2.088462665855663
H 2.525630313387702 -1.7895009156783261 -1.2237367944136925
H 2.6378047713543338 -0.45159803008633514 -0.09407160457604848
H 4.699483720341915 0.05775678230546788 0.8590755149184875
H 6.262182491629533 -0.6096620503449619 0.12056695679999226
H 4.708752309137189 -2.740545093130311 -2.1683106309707436
H 6.234123086733691 -1.947654789903884 -1.7587565236496603
H 4.343319097031888 -0.9219651400938029 -3.577166072070247