15

O 1.0029125692312084 0.023676581254385817 0.18185820214794493
C 2.3953771819442333 0.20713147765841608 0.1131075364493123
C 3.00576999073682 -0.5365014473354573 1.2903659964132828
C 4.454587350899572 -0.41584626643153555 1.3377709554300248
C 5.649844846799591 -0.30233560821869837 1.3437158670427154
C 7.106854703766399 -0.20289619050723393 1.3703177022570976
O 7.749180279625782 -1.137334642304214 0.5296804701275845
H 0.5947584472757549 0.4852301150614746 -0.5524603045394795
H 2.664973427633899 1.2729624660820797 0.18774594083802548
H 2.809721877386052 -0.18437587824839105 -0.8132470086828514
H 2.7105331567677995 -1.589275654761901 1.2304123904974769
H 2.570216753275273 -0.1512702555003522 2.216883067113146
H 7.449931951650266 -0.30623864431527376 2.4119073101111943
H 7.417633052655214 0.7880379411938006 1.0261668506116506
H 7.370092635267914 -1.999038277586651 0.7034373357797392