13

O 0.927098633022056 -0.03781998754591827 -0.17961020583520457
C 2.329604931039551 -0.1760476323267556 -0.15995657589622012
C 2.890899831225774 0.9629949838703729 -0.9864088355586417
C 4.341249955598199 0.9480495505198429 -1.0602608383099033
C 5.546334425925479 0.8905325666227291 -1.0941329870806409
C 6.981030405310922 0.8832845613025512 -1.173559539490155
O 7.6852720977028435 0.0667395097244638 -0.6431333043235744
H 0.5372848912803346 -0.7463686064759822 0.3349141671583676
H 2.645747476790118 -1.1354053345481852 -0.594273545877537
H 2.7244628212397397 -0.11746179496033045 0.8587232474960873
H 2.557551708602802 1.92305515637696 -0.5589570702250815
H 2.4788958416113798 0.9179581335779321 -2.002711012106574
H 7.40496488916296 1.716084538967828 -1.7662823752097125