15

O 1.2415705198172078 0.002237072990149015 0.2717597100721466
C 2.6518658029934508 -0.01751616493602338 0.4666466841757491
C 3.017615739745914 1.3711422870755579 0.961136239370586
C 3.0111633123998605 2.4196884239944265 -0.11148732345234719
O 3.0249427202659613 2.1993913781484338 -1.2885369367927642
C 3.0212155918516035 -1.0849053913415085 1.4468061997661168
C 3.8661645553914483 -2.069382629428753 1.184513264719633
H 0.9890611495662959 -0.8303661883376185 -0.13208725189744983
H 3.172885956771028 -0.19094417072540307 -0.4804388862814989
H 4.028352067727181 1.3789592115964806 1.3941765818629885
H 2.334920361913258 1.6725398090583532 1.7684342647583342
H 3.0202889227345193 3.470228306126784 0.26500933455248166
H 2.5365678019575126 -1.0172653722930436 2.4220602076820024
H 4.3578936961791 -2.1513112407595765 0.2150487569329067
H 4.1112385357926495 -2.8275575266270856 1.9202767543397774