13

O 1.0117428218202649 -0.019675938406095723 0.2266144157873054
C 2.3989741541298275 0.08909747588263785 -0.006596924850502043
C 2.702019703231645 0.19897410326720447 -1.5048439162162486
C 2.2325729503068117 -0.9902092828162924 -2.2885693759492867
O 1.6154289189725988 -1.9089642476732154 -1.8188000479982465
C 2.921803888645337 1.247191141020926 0.7056333294057473
C 3.3900308441103606 2.1922537312714536 1.2719428460777742
H 0.7479685231766491 -0.8571635953047645 -0.16943993929459772
H 2.9141227706396995 -0.811155234125961 0.3699439957602443
H 3.7768070869750154 0.33826870784970414 -1.6825478118943051
H 2.2159998210652523 1.0948784649088077 -1.918005404373337
H 2.5084521643784585 -0.9802741552727665 -3.3666161842736675
H 3.789054858537001 3.040147272542759 1.7819759308490413