15

O 0.8101117016306708 -1.2242933595223329 -0.09974930165005189
C 2.038914522537996 -0.5673807563202816 0.0891943496902581
C 2.5627706923506866 -0.06521631185028916 -1.2132440140984417
C 1.9305822587905113 -0.1366362332671032 -2.372569106172394
O 3.804754326109449 0.4765346928995876 -1.0121985512146872
C 4.287283751526133 1.3458502854927539 -1.9288362432664035
C 5.576279336225727 1.4946532652418905 -2.1461242806808456
H 0.49138065858736624 -1.5192206518381888 0.7508178634613685
H 2.8010273187033747 -1.245207840841824 0.5210615441543429
H 1.9481523588436838 0.2905746507921604 0.7793049856733235
H 0.9456791563150908 -0.5869176136965172 -2.4067614043842647
H 2.3710115325237977 0.19543386795632542 -3.3035958644890417
H 3.5279405109280813 1.948396215538735 -2.4328958921889106
H 6.313205901370269 0.8767363912192147 -1.636975006457315
H 5.931274534861513 2.260153089756399 -2.820594243903932