15

O 0.9279444367108219 0.0325513540028768 -0.07126373333089739
C 2.34338556818178 0.021508411784889978 -0.014495204815938596
C 2.8209356722995436 -1.4240538469584967 0.018062153720860136
C 2.344537804356996 -2.227979781636975 -1.2015752922282312
O 0.9744597495202422 -2.515095289088457 -1.1600997882920698
C 4.27326741982785 -1.4445991686177777 0.10818654144624337
C 5.4743492809140974 -1.4554052970427764 0.14822200279069592
H 0.626933603510657 0.9297792711382303 -0.18729658682911418
H 2.706217563187582 0.5454088077195625 0.8849115180868684
H 2.777973526594243 0.51415265042981 -0.8906463897919743
H 2.397238902929844 -1.91233196738548 0.9095543637022262
H 2.8713776259105037 -3.1843537544993765 -1.235488213747544
H 2.6143539083840808 -1.66904959218176 -2.120391937393351
H 0.5101427971720559 -1.6855761349154805 -0.9683997877632567
H 6.537913134394768 -1.4759652009783335 0.19237194151166143