15

O 0.8194241183443431 0.2005326700272367 -0.7259192994959359
C 2.1119739803926754 0.1869955233600757 -0.16202525137718207
C 2.87808036630671 -0.939175462327311 -0.8100021093614378
C 4.286582377378517 -1.0662829135862706 -0.28424483119623656
O 4.715449782382271 -0.32303195439168125 0.5687814281065399
C 5.1648469731548525 -2.1276776443469623 -0.8320355061413732
C 4.809800711217474 -3.0071988420356783 -1.763594355310954
H 0.3179292035436842 0.9155644723302032 -0.332856327763516
H 2.0714981221753783 0.033342684499508904 0.9233041736209631
H 2.6347696093651205 1.1417021391422015 -0.32759613619204053
H 2.903598548284717 -0.7785373145036537 -1.8973414693371444
H 2.3492021649870862 -1.8828702698981656 -0.6476474631043289
H 6.151650168429592 -2.1422919949541783 -0.39214979890798024
H 3.8235844277143056 -3.0063750774647504 -2.210362579771263
H 5.503981545059146 -3.7646892969072674 -2.1236135551802455