17

O 0.7180125925039429 0.9892306155135397 1.0318273998531
C 2.0675127660221446 0.6542307265203349 1.2506528397621728
C 2.915475826784661 1.8378707619473378 0.848259489528809
C 4.409902666506814 1.5871387211232293 1.0355992607681561
O 4.853950644304843 0.4773612804774947 0.27395320880117036
C 5.19797773454932 2.833092323980614 0.7776187998679398
C 6.282621870325992 2.9112466515248303 0.012568743435862052
H 0.17310979872119953 0.22865843971813973 1.230275253085804
H 2.360789309717683 -0.23331961598042134 0.66342279023366
H 2.2526897013830527 0.4113541346245753 2.311361493543803
H 2.615894229988153 2.7071228518947006 1.4322309056320934
H 2.7223221868128262 2.0814942697709786 -0.2073412386947772
H 4.575730886386821 1.279776846520687 2.07731902819092
H 4.781261436162111 0.7143142827489809 -0.6606134014852068
H 4.828528650046159 3.7282168398454334 1.274244353208605
H 6.691152989344752 2.024747272488199 -0.4775064344767755
H 6.797816489282423 3.8512615350162664 -0.14260215396854764