15

O 1.0256748468126882 0.013722211172395804 -0.044283324509119086
C 2.431405834198099 -0.04163710363688423 0.0371163436519337
C 2.9948813523882754 1.074596404283035 -0.8104989791032524
C 4.524257517722699 1.0916125141015678 -0.8667432929768231
O 4.989702334622253 2.0343441180927875 -1.806563835404157
C 5.115374980989622 1.3134145419526257 0.453105963073431
C 5.585420753727243 1.5246697809586782 1.5360073261431506
H 0.6500321194814307 -0.6618164696837139 0.527149524801549
H 2.8110289793715806 -1.0147654203821714 -0.3317218980411865
H 2.775042230030813 0.07147715845405131 1.08251947645241
H 2.631699417323562 2.030120962072288 -0.42816855070930043
H 2.631809620625047 0.95797563869865 -1.8412749482228143
H 4.879181374785441 0.12004262577894019 -1.242316536045485
H 4.82829698767021 2.9166028389787724 -1.4503378430054825
H 6.016180673847931 1.7139767049732129 2.4929857866502254