17

O 2.425870711415098 1.0278332580920555 -0.15630951907366386
C 2.1267795865302532 0.4451723293551591 1.094471236889784
C 3.4388794206761006 0.022162709051545864 1.7167137921954907
O 3.1511568727848713 -0.5521333529101978 2.9675470583163404
C 4.290506607585133 -0.9675181846643672 3.6409265693146646
C 4.117663880036203 -2.0789588701284822 4.601325099532238
C 4.871968855549028 -2.30903525327928 3.3145318486537927
H 1.6025295287328105 1.3005338392156156 -0.5706308220095478
H 1.4837340532616776 -0.4462563228428722 0.9881410340694853
H 1.6150731014271447 1.1504868207851682 1.7628752461794839
H 4.079860067008783 0.9044877020362385 1.833179566690263
H 3.9560903242838714 -0.685925243320809 1.0613949665568951
H 4.983594693805661 -0.1627278831502262 3.888038966432634
H 3.125498556206345 -2.503720988708036 4.679888828881346
H 4.670401147014562 -2.0472896997098187 5.533498682642422
H 4.368448110004234 -2.8951112477842234 2.5567954506244375
H 5.9486440186764975 -2.4373999456473023 3.354093824053907