15

O 3.401094092220997 -0.9473242111861585 -0.7439863194774525
C 2.5271998853886752 0.0873666328341264 -0.4195710220648171
C 1.1812612101906714 -0.4646259864522316 0.005216430801137629
O 0.9617696432772131 -1.6463647652662552 0.02539190782693977
C 3.0755734938391854 0.9887052614195787 0.6536655987964888
C 4.04060492147548 2.06614507499511 0.27212556729231896
C 2.652024772367161 2.4319796633166124 0.6962983498494204
H 2.883822908107083 -1.769466031985473 -0.6484284288279983
H 2.3177154612191555 0.7167940703108469 -1.3116993619501842
H 0.4168943411031804 0.2792449876539631 0.3011243602226144
H 3.251003357912641 0.4924838236800803 1.5993822665617219
H 4.294638774675428 2.1560754688226984 -0.776518685850311
H 4.860113174406748 2.266180797827601 0.9464952994586351
H 1.9708973389590791 2.7796648897678815 -0.06763859704438337
H 2.5167944552050603 2.8837086545364716 1.6720164525157057