13

O 0.6594049721423665 -0.14670107635209806 0.3975340976893846
C 1.8658407948154845 -0.16182429208325988 0.4047016239818423
C 2.6592355707093693 -1.4127627354490941 0.6631695635712868
O 4.019445024909385 -1.0929270497452555 0.6172600477240564
C 4.842055460512401 -2.2147219015108393 0.8460583775745746
C 6.243527173188643 -1.8390980217144939 0.7819764584850822
C 7.401989779893764 -1.5532600251301245 0.7393841612468784
H 2.474116818026681 0.7478731492509988 0.23583982594926733
H 2.3800372372990712 -2.168388713329885 -0.09078800536818274
H 2.364637525833672 -1.8244613927611635 1.651936411483658
H 4.639239638364042 -2.996824665665895 0.09125238161889376
H 4.627355210335573 -2.655153676424936 1.835184602068994
H 8.4364945948058 -1.2914676889517482 0.6963437786771675