17

O 0.8742547288606315 0.03892545819523076 0.017746392362212343
C 2.2840530468947837 0.06616915343495408 0.03401842946048677
C 2.698827499797569 1.2485111425036977 0.8578875717509002
O 4.1009822773046825 1.2882352436420255 0.8818655231551861
C 4.595734888222115 2.3796447738857385 1.6221141361050786
C 6.082055242052421 2.3935245659967714 1.5343454471263904
C 6.8899473753643194 2.5042773684734225 2.579404335830126
H 0.5852768842478876 -0.7131360585238338 -0.4987377862265656
H 2.693746874533383 0.1595644567070985 -0.9761116986840821
H 2.701797542347018 -0.8458547913961153 0.47955099265701373
H 2.2810148820167675 1.1634383182176196 1.8736010035490616
H 2.2944804851890837 2.17067093047116 0.4116260131752741
H 4.281842747804824 2.3235563527109835 2.6702435385927825
H 4.188723366353508 3.3223615349381985 1.20696641063602
H 6.496175299491494 2.330236653462904 0.5274769689692921
H 6.507533850493409 2.547278426889398 3.5932937179405626
H 7.974634480025757 2.5396063732731067 2.4604402858695926