11

O 1.0129171033614797 0.14144297727066585 0.11090490316846054
C 2.3509273630043652 0.10348953616522605 -0.0036369842790974316
O 2.914030195279755 -0.2657272977921572 -0.9890617753107294
C 3.043270156343002 0.5655613235619807 1.2378506409192769
C 2.359338109678943 0.9661025245650852 2.311875735140192
C 4.467811750953368 0.5508972013208547 1.207116635371542
C 5.672297157949618 0.5339979929750129 1.1772949437340021
H 0.6655356779628264 -0.178360396371568 -0.7359620229458562
H 1.2799745810924197 0.9549279747420604 2.314073404038437
H 2.871835238022688 1.296444913211711 3.207351676714603
H 6.733630091277434 0.529198889570719 1.1539066923163506