15

O 0.9299475223509623 0.3035463716171027 0.6098791610310352
C 2.248380630291022 0.12237934826061929 0.40352915281222934
O 2.6729494270558476 -0.667655174179844 -0.39785435762769894
C 3.0725264212795778 1.037573086198287 1.2676378688809886
C 4.5655824767761075 0.8107633793534775 1.1153238403210104
C 5.362021689834911 1.784805723039248 1.9177147055562371
C 6.219180236765809 1.4601232639888657 2.87022270438481
H 0.47389972846803763 -0.3153932145752906 0.014963313392715387
H 2.750417842189759 0.8949261564869941 2.3066743590449073
H 2.7925884413387525 2.06572300795738 1.0210966760084417
H 4.81705283610117 0.9125314073463219 0.04810732229352835
H 4.818274872843916 -0.20599201688609095 1.398708039827806
H 5.202487857514702 2.8391078437168793 1.6845052638330724
H 6.409054623020121 0.42019050696526494 3.130657199595701
H 6.774490272884965 2.212272988874835 3.421558578940767