14

C -0.9788907596535599 0.19190328198055248 1.0230633180564168
C -1.249250474575419 -0.15764892509151543 -0.4467744262142726
N -0.6169732508895452 -1.4837909805737588 -0.14129844803997216
C 0.27634169279262294 -0.6279796367087631 0.7143742975063098
C 1.0046785801939473 0.2379099498722139 -0.331594214215067
O 0.5631638779008218 1.587826978741217 -0.4225606909043796
C -0.11557000319943797 0.590052279948467 -1.1870396507957501
H -1.6571920969219003 -0.35758759598752293 1.6757917932782143
H -0.8751356667496386 1.2335970339516764 1.3078552185385994
H -2.2403532675310514 -0.16031399901137136 -0.8992249375761333
H -0.12957178075867937 -1.8789506501181121 -0.9374623598667681
H 0.8694550292920957 -1.1343125612608946 1.4818428031813444
H 2.0243685846703343 0.03567988653508908 -0.6633091408958496
H -0.08437730273038113 0.6979639809715994 -2.2635149864682194