13

C 2.071556791410087 -0.13005178285276148 -0.1289415287985303
C 0.7355050535800145 -0.8323454599649638 0.08788755922658335
N -0.38853692032834214 -1.2932401002235017 -0.6702209099357229
C -1.423019517827751 -0.4446787992541492 -0.2246565253979756
N -1.3736822901848247 0.6962039650034298 0.3723937116891376
O -0.10645671170379059 1.3080306385281382 0.6307429220451128
C 0.7797686104253384 0.6177229201144068 -0.19118987808963814
H 2.6163574866946924 -0.14437313549116704 -1.0594246491844657
H 2.687423083735307 -0.17445204165752679 0.7582406923065071
H 0.6200001759456168 -1.00881584334844 1.1492507871759428
H -0.6273190876851861 -2.2706142344140496 -0.6564423918761225
H -2.437799449706608 -0.7960266372093516 -0.39696430409302047
H 0.5459131470888209 0.8320335398906408 -1.2381955013372012