13

C 2.0696421903726256 -0.13776019046512125 -0.07003590989342147
C 0.7043821257357694 -0.795511952522347 0.04130843640181957
N -0.38234597926078623 -1.2522529522241577 -0.7619910384355416
N -1.481656091509503 -0.4716567511709128 -0.3560183143602628
C -1.306070872656249 0.6666266610752719 0.19821272728385222
O -0.13936418542257592 1.3724988800632243 0.45502723826830843
C 0.8109388436848122 0.6442191586967524 -0.2752656398178968
H 2.6886897962359764 -0.17830027918317695 -0.9548982843222233
H 2.603371510817031 -0.15693914516819596 0.8690199167345464
H 0.4924644122740749 -0.9197608715576963 1.1070433863129343
H -0.6583556019274004 -2.2154146744897654 -0.6461781630534541
H -2.1884414482351384 1.2281859026925044 0.5043601827122646
H 0.66195036773199 0.838207338103189 -1.3383635710959005