14

C -0.8114128757228085 0.002601029434515189 -1.31819115398942
C -0.5966439052590503 0.9616971566538273 -0.1423491015314032
O -1.3187146664466693 0.0037565089748878445 0.6844677092864128
C -0.596970635787486 -0.9611187350376356 -0.1461445472598027
C 0.844971583740039 -0.7416631810807592 0.31649269672737385
N 1.7787584132207228 -0.0014483543175921247 -0.5096670067670227
C 0.8517041077471315 0.743041074255444 0.3242010178699278
H -0.1576029043570582 0.004208338454848229 -2.192114022644403
H -1.8561279274593239 0.0029741261218280447 -1.6294829048855446
H -1.014152642226987 1.9689091527606768 -0.11231465489286672
H -1.0084303547899105 -1.9679791193280969 -0.10791702231000366
H 1.267538093739538 -1.3496434243990458 1.1113581346597488
H 1.5317543273865977 0.0030984879095083536 -1.4899236469082462
H 1.270399558997623 1.3521383865766374 1.1063955290991039