12

C -2.564088917622151 0.3829529668897356 0.6350779936113538
C -2.4202375350092615 0.38709059100446785 -0.8887107679261353
C -1.2461421314372516 0.24089105493733748 0.0015741353600066338
O -0.5422018755261442 -0.9759983413416629 0.0599996984901013
C 0.7361191998636178 -0.5997034731858554 -0.11679859834772448
N 0.9643867527464897 0.6487003064685541 -0.11802596278598645
O -0.27766290306525687 1.2569301520831873 0.09958051335342624
H -2.992604539527432 -0.49153448270361866 1.108847429244989
H -2.7788818182807336 1.3325507960056864 1.1206860480927527
H -2.5461166983820487 1.3276964777737144 -1.4097718812171398
H -2.763810989284021 -0.5002711699834176 -1.417037586014339
H 1.4925328059234093 -1.3660454445818964 -0.2276861833657432