16

C 1.8698358003463573 0.08055251251972331 -0.7708514762694091
N 1.7940357533874318 -0.18700117506044095 0.6633000083014456
C 0.5629578950462887 0.023652812000398978 -0.07910163831803492
C -0.3236146975304128 1.2390824758030008 0.14764480723155246
C -1.696213110526095 0.6920036206842809 -0.2070514286202162
O -1.6562604477352383 -0.6668376473481392 0.17672179007930638
C -0.3985491201209706 -1.1497573635532086 -0.22510854104493244
H 2.1980327442141925 -0.7536685919033557 -1.3692603924297244
H 2.2196343322415717 1.0515483571052013 -1.1119776317417902
H 2.0363793602761304 0.6590914208569281 1.1880892037083974
H -0.027518664651356373 2.1018579839046736 -0.45615726669042755
H -0.2936037029461926 1.525206903347497 1.1983920005476245
H -1.888693460122645 0.7853208354268894 -1.2866866356727358
H -2.5128746394580057 1.177725793875776 0.32616769674195534
H -0.44070935552433144 -1.4821908460072073 -1.27309687628034
H -0.11173072082909914 -1.9911818419891822 0.402413568739318