16

C -1.488998111192453 0.7728640131583314 0.15100207482463834
C -1.3902739086496554 -0.7192120778313427 -0.07922135950603594
C 0.002022415980640834 -1.2457112152599865 0.17364209332847302
N 1.0464110310519341 -1.0488415072505872 -0.8406480164913366
C 1.1050957493699296 -0.27506958724984687 0.3937771942584436
C 0.7854311502457366 1.1915486776318471 0.35661385642833543
O -0.3802462148687465 1.4624447573363817 -0.3918915855668456
H -1.5553826074447408 0.9929042750419356 1.221038196217259
H -2.377199867883606 1.190913174945711 -0.33269454935664067
H -1.6917393656648374 -0.9686874093363403 -1.1050804508831582
H -2.0986446670636756 -1.2367995592025773 0.5795815497932341
H 0.0688176135110397 -2.2127954081209475 0.6547253674407749
H 0.6814619295410458 -0.45102701270967577 -1.5798733545413814
H 1.9260075397686995 -0.5493051257616451 1.055821242212323
H 1.5976633166125627 1.7436750793132323 -0.1281360062542607
H 0.6741619034621178 1.5674517795234955 1.3801706672990466