16

C -1.7254831102738517 0.6593234121799231 0.3594545999764053
O -1.7112259521237183 -0.6609235945269626 -0.2636069946635055
C -0.28940479386815454 -0.6879034773117645 0.039598892032426815
C 0.9705077150250001 -1.0860840192085255 -0.6782850384004467
C 1.8958198239675832 -0.024342103657645928 0.02350425069612212
N 1.0284445463306846 1.0922636688494416 0.558769387083999
C -0.2447496114470612 0.7968585183107676 -0.044741679710558244
H -1.8833951979441397 0.5811212464315453 1.4477897076593518
H -2.452732075054984 1.3163535178601022 -0.10017751472926555
H -0.19058827403381742 -0.9944180353449505 1.0926211054490802
H 0.9111961942842971 -0.9186928785490769 -1.7516749912069176
H 1.3350280404613006 -2.0996257595243693 -0.49575644708678773
H 2.6417646975597764 0.3647729810285061 -0.6792718335819087
H 2.439663657583526 -0.4810355689563304 0.8600038141809218
H 1.4069787865991752 1.9904763177587201 0.28285903427393294
H -0.27628989478515015 1.0679554180242132 -1.116363476683584