13

C -1.4791814598346285 0.6109439260159125 0.30924658595134846
C -1.3390447162077455 -0.7599249670237922 -0.33313478362780846
C -0.24497009106147796 -1.5033489016533144 0.35456267299221245
N 0.9773826123703259 -1.1311186952218883 0.3927629814794152
N 1.395477524490459 -0.0773848770324458 -0.37750814855654025
C 0.7638068204560321 1.0259524282714325 -0.5003686855804428
O -0.4055681915503477 1.4904121515789286 -0.043316346971607994
H -1.5208261877862261 0.5271866589456299 1.3891176133646623
H -2.38461639130458 1.119731752027048 -0.03578137804224453
H -1.1271656594057524 -0.6459556887708788 -1.405211073027351
H -2.2834828103138114 -1.301395249663671 -0.2415383110768505
H -0.48457208091952864 -2.372137438160164 0.957188902610606
H 1.272483217854858 1.8008428800207337 -1.064421965078306