14

C 0.9150354020292352 -1.0875313163065117 0.2871945497895097
C -0.5202645066007622 -1.5772085030946243 0.08018284461797216
C -1.4541899051382046 -0.5525506372853323 -0.4803843958680578
N -1.4063717101121547 0.7116368377712048 -0.4234836460251605
O -0.33987007188669427 1.1684820052412057 0.3849493458238148
C 0.8695923310126911 1.1604844863822716 -0.3160215499674636
O 1.2711877950547001 -0.12417500260246034 -0.6927595467748218
H 1.6075545618897642 -1.9181899295067164 0.15731858383981226
H 1.0537498734231738 -0.6825151606358273 1.2896534329857414
H -0.9378078375671174 -1.9701354893730272 1.0168958486789264
H -0.5235880842637058 -2.414719463095299 -0.6275017455095873
H -2.3106064955036483 -0.9168487611482155 -1.0450351055304201
H 1.5795482690985003 1.6172509043641117 0.38252686351009274
H 0.8101012332965065 1.7422168201941919 -1.2498103249601784