16

C -0.14034359212562117 -1.2708335640587105 -0.4527472323940689
N 1.1425769104082697 -1.0069797345450655 -1.1040821519867552
C 0.7908332906996565 -0.2861401358287475 0.10930507868572156
C 1.6106928004851369 -0.5708816072421733 1.3345357416933332
C 0.9621206695987632 -0.2674841140439656 2.6840472639350916
C 1.2505478579885063 -1.7310351001464541 2.9876657188968507
O 1.7261321958611078 -1.965484094692533 1.6574955625549597
H -0.21727295854237158 -2.2504196983619367 0.0024281864530658987
H -1.0566556898460104 -0.9070341498316219 -0.9201070849024249
H 1.0173458644400415 -0.4207728019516254 -1.9257444903215573
H 0.5275141995320293 0.7679346536532945 0.011976148907931751
H 2.613784647118988 -0.11934961856505662 1.2093983144350016
H -0.10351423227547006 -0.018385160654491323 2.606042666287651
H 1.455113713909013 0.46821686756336656 3.3135480514941387
H 0.39637644956960544 -2.3679732162651583 3.2320880290480334
H 2.040569887872482 -1.8999095237786594 3.7307754855371797