16

C 0.2870869233138693 -1.754863300286559 -1.0804057841493286
C 0.5954287046394251 -0.3173437557633886 -1.0348530733359544
N 0.17585680240873217 -1.0160042054358656 0.161928430087294
C 1.2053888301899933 -1.2723956285556763 1.134232516916723
C 1.2862765520287227 -0.2768607298121343 2.2960608976463317
O 1.1494432605978477 -1.3334284035718722 3.2551639274769832
C 0.8540271645859633 -2.286315081253764 2.230931894940315
H 1.1214689453658346 -2.443774078695113 -1.1945658861228312
H -0.6503444988706844 -2.0982323791534703 -1.5112508280862518
H -0.10130108120003645 0.4090519081729784 -1.4320989753961089
H 1.6432047586592071 -0.03070997790776053 -1.1126582272258627
H 2.1792821505076256 -1.467120561686083 0.6588714871427338
H 0.4497552232103942 0.42513029041318795 2.320419778830579
H 2.2323655998764127 0.2719970516764621 2.409771851327158
H -0.2039337017539037 -2.565537200634744 2.2156701347069623
H 1.4848023593088695 -3.1727308575026854 2.3070984502089127