14

C 2.0893696610976695 -0.13425984556127118 -0.04372162983743964
C 0.7811355624815797 -0.8478602680397936 0.16711997832240463
C -0.40342741054142517 -1.4368230429694988 -0.5395874648046597
C -1.4723007449057732 -0.42168300692029925 -0.1271486244203512
N -1.3570888483075605 0.746992671395377 0.38427834569313846
O -0.08059801387595092 1.34110975866597 0.4994068673188319
C 0.7948769213257265 0.5698549837714716 -0.24876845828231564
H 2.687062368728248 -0.2437748333206334 -0.9448316457643996
H 2.659718801054217 -0.014024036536066892 0.8645229278875782
H 0.6119091783610664 -0.890237264165572 1.2389759628790984
H -0.7112414677352475 -2.4345910310427548 -0.19059783383469736
H -0.3126593491308934 -1.4901065765371977 -1.6240306917644782
H -2.517288453795917 -0.7234801479258057 -0.15345047831273206
H 0.5776222393561743 0.700294769310048 -1.3098558100862248