16

C 1.6699282147940857 -0.12547937967234882 -0.05806302081102693
C 0.7115674675203728 -1.1732696774699694 0.4928757400826701
O -0.41887677479684704 -1.4251244043923272 -0.3272989766066798
C -1.4329428860583213 -0.5397336883178803 -0.1814976298997116
C -1.3560653803197968 0.7331658083789269 0.19873688017798927
C -0.09194061926538194 1.5296394911380535 0.39636156040301534
N 0.9807108350628745 1.0760899176640357 -0.46866285229359145
H 2.20076929279903 -0.5315681859565085 -0.9207332545135315
H 2.4133258819784773 0.036734479464646835 0.7365083810583548
H 0.362759688175295 -0.8736370659120875 1.4864027724794835
H 1.2440115623561145 -2.1199757469974085 0.5917936982920146
H -2.3894127561167293 -1.0023113977993976 -0.4177379332999905
H -2.288901410274506 1.2538914167959583 0.31179609721349005
H 0.1945920069629703 1.5726359472717402 1.460950217389618
H -0.3168006354877964 2.5593691187052396 0.10984271472366519
H 1.6405930540725497 1.8185381448230058 -0.6442071270988518