15

C 1.697578814071273 -0.11908523683285933 -0.04777931984566477
C 0.715270256566305 -1.1360744307650943 0.49058761867536477
O -0.3946589598200816 -1.372517545290198 -0.34982818313496167
N -1.4937623243859508 -0.5607630859938318 -0.1531903120016038
C -1.3148879273021774 0.6486344010226177 0.20097403536711198
C -0.07347205863352535 1.4946873186020997 0.355176799870914
N 1.00493609936769 1.0591946613847698 -0.4927816127434207
H 2.245345686886983 -0.5445486738943118 -0.8910178361300674
H 2.437322449063141 0.07682907976054955 0.7634618175500862
H 0.34311732538459666 -0.840878173821521 1.4854846124173133
H 1.20884822826863 -2.1085231054687408 0.6020389906037181
H -2.261496222015506 1.1614275149487907 0.35352067982064905
H 0.1772848178817997 1.571237014601544 1.4282400896722611
H -0.35842950330224355 2.508799715783928 0.05031855563151778
H 1.6456035755687743 1.8203017927379403 -0.6808351095643036