16

C -0.37302335403455106 -0.9948249865392133 -0.49807423874934315
N 0.919068046460691 -1.219512764998836 -1.138739509478037
C 0.8363280345741749 -0.3141483786005213 -0.009296450137129715
C 1.5522584395290795 -0.7098152797317077 1.2542083199341685
C 0.779685526008096 -0.44298435881464104 2.5561310861371656
O 0.5662014034174506 -1.8512108309562179 2.7673485101696276
C 1.438662579450559 -2.180677180650969 1.6709612636074722
H -0.7713230010505364 -1.844992800671707 0.05183890771412684
H -1.1213910498004318 -0.3982767272687471 -1.0141166563098811
H 0.9770862948961502 -0.7177334803138856 -2.0123153054002247
H 0.887699814878466 0.7523575949729719 -0.21946923398621832
H 2.5697572198326273 -0.32475603572125294 1.2380269390231116
H -0.15406230838844628 0.09973791022554365 2.462848293849315
H 1.3805044086076788 -0.008586324017317019 3.3637809690654983
H 0.9710598350019575 -2.855191166809037 0.9515215206063499
H 2.3824296973331984 -2.6213637074450573 2.0240656724378665