11

C 1.8051409519026287 0.16767794486904367 0.9101153295175363
N 1.9913509093807462 0.3416132758781215 -0.5780461873133836
C 2.9223155391079474 1.3628785526432674 -0.29047145943451874
N 3.75350531048932 2.2442609096710027 -0.7592877793949653
O 4.125829349375972 2.903556812534769 0.4242386729325988
C 3.514874479229799 2.3696064711678613 1.5066884597423615
C 2.7283421156421546 1.3569422100444541 1.0974933265322278
H 2.2072552222891315 -0.7735119331800563 1.3029842756178585
H 0.7705867698431136 0.29061686436733253 1.2144907410204953
H 2.2774184248350404 -0.4529731358194385 -1.13445401349299
H 3.7660311770132915 2.8315221727328757 2.4462058182875386