16

C -0.18740671338650272 -0.9928398197043571 -0.6911749128532105
O 1.1380150485911942 -1.151193092452816 -1.1509382233697774
C 0.9304317624912251 -0.3298151124353165 -0.014459269339428826
C 1.5273527008269403 -0.788287851139189 1.2777641839752358
C 0.860055570227083 -0.3433485218351393 2.5939793638136495
N 1.172139585700023 -1.6634100346522545 3.150461484163418
C 1.342608175224844 -2.222323694187452 1.8018920948556638
H -0.640016619669389 -1.8863814535660637 -0.259553307765002
H -0.8380823547618085 -0.40912003044999373 -1.3279226926776828
H 1.049122366645036 0.7341250867218078 -0.21863409051845917
H 2.5814737009956925 -0.5234950514334149 1.2912821778841166
H -0.2187299643517608 -0.15661480935262892 2.452867892309705
H 1.2951612935921302 0.503434010287349 3.1371069290510505
H 0.43862051989055 -2.0842530015820064 3.7180472692787605
H 0.43809623241062967 -2.6973320583940743 1.396366090346744
H 2.1792719298176673 -2.9036008902509924 1.682383330295816