16

C -1.7892429819925348 0.6319754762430753 0.2853978908021972
O -1.720961653787528 -0.696181876604427 -0.3190481562210741
C -0.3228927486211441 -0.6847619391698397 0.04169402504291339
C 0.9599890025893845 -1.0583766095635365 -0.6740265802687126
N 1.8478067934993163 -0.05560020910937001 0.0018036985521452608
C 1.0598131734159817 1.0766809369028905 0.5897097791541616
C -0.2868440260053203 0.808311608326542 -0.013217426348139025
H -2.040251484146181 0.5562634201891646 1.3488133352936282
H -2.5035834397432506 1.2755122095281648 -0.23009148456716566
H -0.24826934950090476 -1.0422743217736685 1.0851943905228263
H 0.8639424302119341 -0.9087644810529648 -1.7516965261610133
H 1.3242263927091105 -2.0688438106617615 -0.47420058069759785
H 2.5432803016281236 0.2856226045427943 -0.6461012643834575
H 1.5077723618760897 2.0360464780088203 0.3045283578210815
H 1.0710894535894548 1.0122246601598843 1.678691264853348
H -0.2399092381296464 1.0762209260434492 -1.0797416561811295