13

C 1.0605329814601419 1.1661157102804962 -0.1442059167393451
N -0.18652886822242254 1.4256954601509315 0.5656055965331065
N -1.317191896006525 0.7592985324311947 0.21749239478305848
C -1.3974643804224751 -0.4873985283770947 0.029844303496483794
O -0.48399956740133415 -1.4979364460340496 0.05158908637415573
C 0.8640739308164853 -1.3387556055857388 0.05076607755017098
C 1.574453067183643 -0.22525457194275 -0.01760673039914782
H 1.794788122689881 1.8625207970796869 0.27579386107477083
H 0.9610151333730699 1.414374458220253 -1.2141642119838165
H -0.4126374089080186 2.411948747045009 0.5083118217862229
H -2.375737983130517 -0.9103104812253057 -0.15925461138300503
H 1.339403511747059 -2.311234953506789 0.10644834978169754
H 2.645019557580853 -0.352233446684816 -0.029487143556357596