11

C 1.3907400138202155 -0.6453159010973657 -0.20836815069468065
O 2.3967354569647688 0.44507701393711924 -0.19586203750694198
C 3.171780425550559 -0.37202886285410197 -0.9713169938597814
N 4.317970762485473 -0.44751904406209997 -1.5845433356885756
N 4.199670388186077 -1.6938808963917005 -2.1310440298058246
C 3.024642166974889 -2.3430115475645947 -1.8480396717945464
C 2.321837228647428 -1.4621658892565137 -1.074994814563288
H 0.4659586159070631 -0.2870337640757612 -0.6766869654886009
H 1.2101046008027145 -1.0018358670138894 0.8051128388870585
H 4.962181261728598 -2.043078326119873 -2.682511889256069
H 2.838602375498516 -3.3271444718299303 -2.232533566501104