16

C -1.2032656349683584 0.0027882325632914654 1.0006426415313492
C -0.6202061500762867 -1.012960774340579 0.009446630899773772
C 0.8617775582983279 -1.191907657416637 0.2893619346524249
O 1.4457338711323946 0.004410264258139825 0.7729317412399124
C 0.8559032522553758 1.1906902289341441 0.28388994137132945
C -0.6222027195779648 1.0180284340265735 0.0041929933359767255
N -0.8247399313994637 -0.0014107868273331731 -1.0447391968342776
H -0.8139549911296879 -0.004201113257131342 2.022548213162133
H -2.286173617942297 -0.004836939265633099 0.9935347010855506
H -1.1284555474370652 -1.9738242503403383 -0.15067203019654773
H 1.3657169794896906 -1.5315163110125611 -0.6409788830451307
H 1.0331619193858663 -1.9520145403387956 1.0539341245993625
H 1.3667381264592138 1.5281510321885041 -0.6372794212146999
H 1.035270023921175 1.9496228470984922 1.0527272873333595
H -1.1334425674616126 1.977595082484952 -0.14625574685260706
H -0.11097077342626964 0.001227602768195799 -1.769945444565052