14

C 0.6864061502689359 -1.2138317242645233 0.5005209814458693
O -0.5752475063622753 -1.5003931306140494 -0.087160698492577
C -1.522378411735067 -0.5450719452790709 -0.08050933562671451
C -1.2949859461884317 0.7638422013364453 0.05836214757841345
C 0.07789218392818115 1.2491001861034452 0.20511362776595707
N 1.0194913131270942 0.8836538708366484 -0.8828701858672042
C 1.1174538674893477 0.2238764542814136 0.4009815317406668
H 1.396671454518109 -1.8698219468695139 0.0048818302593016906
H 0.6453365836743349 -1.4829039970874947 1.5651289292906498
H -2.5088010359641797 -0.9615307040298919 -0.25168768647545897
H -2.1313110674782614 1.4520171452308512 0.013337148900100673
H 0.22710868841846726 2.2201209207370884 0.6755816926112674
H 1.7386144657172873 1.5822568238805865 -0.9829817526446231
H 1.9595646065455758 0.4613840678890668 1.0457626371650164