12

C -1.3068759560420513 0.6454845206274301 0.2603705391285717
O -1.4783438680777907 -0.7597813986844302 0.17449490881214688
C -0.375252752516488 -1.4898284727670554 0.37449458553420173
C 0.891207500286191 -1.0581629024421226 0.41952360667656435
C 1.4177609001831302 0.2638294869774805 0.15134703230738641
N 0.8765526385789989 1.308228781295585 -0.34768233211413013
O -0.46603070864010565 1.1839270052911104 -0.7044950213720339
H -0.928876619911802 0.8798580235161821 1.2670992630645301
H -2.2916475519378308 1.0558669215413363 0.09326684271686979
H -0.6137296383141123 -2.5332343544847205 0.5357195393417644
H 1.6339366164781366 -1.8088365418368626 0.6624247325061048
H 2.4649097195552745 0.42048187458682834 0.38963835072045266