13

C -0.4309190577366603 1.3720432627408217 -0.13380111921590054
O -1.5222341693156733 0.5339609950720975 -0.4809154560940568
C -1.193362239352104 -0.8403184706449629 -0.5494955895018258
C -0.2320917806580471 -1.2392633431471334 0.5365101588207326
N 0.9814426289656518 -0.8667555042402953 0.5667561349531144
N 1.4525620239937278 -0.1474704100844945 -0.49486558157875105
C 0.8427908759375548 0.9187857918212781 -0.8074368839803631
H -0.2728028100203647 1.3754346964228472 0.9497198527401078
H -0.6990327389182504 2.3791003227193253 -0.4474413244992383
H -0.7443645769503741 -1.0694664261590818 -1.5333154817550663
H -2.135632712003041 -1.3845487707146162 -0.4734548979518926
H -0.572402639944762 -1.8481482624532357 1.3648962270499998
H 1.269235534507986 1.495265581719869 -1.6215755477889924