14

C 1.0021887171455974 1.1563178107048908 -0.08860428077253929
O -0.23888900593404933 1.1789057239663423 0.5867150408444444
N -1.2757017082942885 0.7885339448689771 -0.29563925217254106
C -1.3962243610306262 -0.4670092712489442 -0.33292100890780546
C -0.5208049940138151 -1.4602133727965818 0.3697819082908431
C 0.930591248349797 -1.3514300879091585 -0.032126886584914006
C 1.5786393426525143 -0.21482200189963163 -0.2503948385191562
H 1.674935363915904 1.7647543285508003 0.5250933376207795
H 0.9132368207324585 1.6664725266592966 -1.0532558224457125
H -2.2024332623874767 -0.8114911194377238 -0.9719868264312073
H -0.8900336505439668 -2.4698110473911776 0.15677705594341934
H -0.623865359871926 -1.3084878424736381 1.4493387999576253
H 1.4618995205481582 -2.290748506988507 -0.15261561997607048
H 2.6113918434261043 -0.25097576359151974 -0.5660859486207468