16

C 1.43949946748802 0.45712156800681686 -0.13238531331682482
C 2.8263778635039616 -0.05009462856999686 0.09188769669348984
C 3.0709432023703718 -1.5076877022492734 0.37445534683431647
N 4.516058272129796 -1.6434165403459826 0.2834518050931811
C 5.040474042369754 -0.6355310844660605 -0.6285504240091684
C 4.0459061701053765 0.4781500910470044 -0.505106753910945
O 3.7058668716999317 0.7994173832880416 0.8335662779625709
H 0.9621662047110393 -0.08847636967503675 -0.9557632460337874
H 1.4498034314693675 1.5137246387717467 -0.3804078300323043
H 0.8266734593304838 0.3158718361374565 0.754966354643298
H 2.51938189068984 -2.0909644048990716 -0.38530904634985264
H 2.7116152599935583 -1.810896878760035 1.3635861666319502
H 4.823912661780457 -2.5832684896677245 0.056216801217377405
H 5.0623648201434515 -0.9528830497035602 -1.6927387548803448
H 6.0563831672966995 -0.33512107985130324 -0.3471405176603436
H 4.0446411024824895 1.3073903561463993 -1.2154863249670624