16

C 0.9201863085322373 -0.008372203771088495 -0.12524924010158298
C 2.4069769897947393 -0.05966203322407337 0.03698274319499649
C 3.242368472520512 -0.9058028020082988 -0.8615324846518013
C 3.2922636761544024 0.5929978203602162 -0.9947011974076636
C 4.48202408961052 1.4064803262627361 -0.6120830215140033
N 5.247427629118224 0.9337084614477478 0.41076042413865943
O 4.73601062689666 2.4483194204793297 -1.1769358135842105
H 0.4305426858319444 -0.8266577932166546 0.41306160688187205
H 0.6352348425984138 -0.10348220481507027 -1.179659911428943
H 0.5081358655708631 0.9293011058441211 0.24187728090995203
H 2.764758420542154 0.03143003653999192 1.0586865218739523
H 2.7495348071301886 -1.4519287565067125 -1.6662148708095683
H 4.106336668988492 -1.4236639210268998 -0.46200003456998745
H 2.796213182566975 1.0276292266162423 -1.8591043396635591
H 5.140994454069273 0.018384041261175092 0.7828198631707252
H 6.083443198480756 1.4433824826297568 0.6220853523375526