18

C 0.9710779318709486 0.21698887822219393 -0.1311270901372292
C 2.470772851488727 0.15894261228136186 -0.03525910267580597
C 3.263660675427122 -0.7253012340904185 -0.9584163072976652
C 3.364007359217326 0.7701795407419073 -1.0657852327637518
N 2.797453792506608 1.5147473585447782 -2.162662280353404
C 4.643302880511052 1.421355193492334 -0.6073423148016557
O 4.445686720415701 2.7732689442902476 -0.31011981723303983
H 0.5166296219903104 -0.5746378447650968 0.48045321990748313
H 0.6155941593428227 0.0539491223069355 -1.148629262052208
H 0.5809764129791686 1.1684402063741872 0.22348437649173641
H 2.851317568728995 0.233569954333956 0.979918129213774
H 2.708006472342836 -1.2397553946725826 -1.7416017330566953
H 4.105622664031823 -1.2858174946921255 -0.5636423308241457
H 1.7871845581046797 1.4905086324818404 -2.1565636060452658
H 3.1206922451726644 1.18382807755035 -3.060624626010805
H 5.414657996916427 1.2959387229030397 -1.3771820745212608
H 5.01642150637441 0.9315756832709807 0.30328105370085595
H 3.8557814045323187 3.0907404908454414 -1.0207369083307012