14

C 1.029824982964313 -0.015818662667574465 -0.004817167462747603
C 2.508351027157508 0.1311836759209291 0.01791575452159342
C 3.329232669531984 1.2313826888072401 -0.06315688293800058
C 4.672757174593088 0.7821401971981955 0.016158863522527496
C 4.649963313335932 -0.5805996031570237 0.1346825431587245
N 3.340612173167903 -0.9435465409153332 0.12648064527403013
O 2.9101859340466456 -2.2295271077385057 0.2993255500318432
H 0.5799747356982805 0.9811390165057984 -0.033209153122666146
H 0.6610729005075762 -0.5268185507070015 0.8859128307640555
H 0.6821547896202349 -0.5757201674259801 -0.8728139274252947
H 2.9968963317299284 2.2465116685455544 -0.15918540887064192
H 5.566348209277249 1.395304849462577 -0.005565366843143355
H 5.427451712338889 -1.311362099686797 0.25028787346404685
H 2.8250963473692767 -2.6095523781684284 -0.5773201100670403