14

C 1.0584566948502192 -0.13796562353382943 0.07665202363132285
C 2.5157371856133413 0.06581613239600037 0.08482695761573728
C 3.323180817041805 1.1591413234644619 0.08111264040166237
C 4.673795370988384 0.6988218261079049 0.0871188365906327
C 4.588108626333935 -0.6587295131381526 0.09023675522818536
N 5.511100455422925 -1.6656442909964642 0.09265402788306842
O 3.3046676784725526 -1.0579040363516188 0.08489470029504301
H 0.5537639191931347 0.8232119557626183 0.0755216149421164
H 0.7277165321905302 -0.6949802820979252 0.9627074584373242
H 0.7273105165390631 -0.7017076370097116 -0.8060107237259386
H 2.990731359625963 2.181536059091963 0.07493138642400943
H 5.578761589360405 1.2851914843874637 0.09076392956042023
H 6.491669234480914 -1.4650610588416846 0.10037180530027852
H 5.208800047567592 -2.6223373753324153 0.09561229381501467