16

C 0.9526163553632129 -0.10616476193516472 0.06195422676721404
C 2.4619074812222954 -0.13528265438759857 -0.026405953828053236
C 3.1198386199635872 0.009833654342709365 1.3433340464143106
C 2.99345402388465 -1.334648542113649 -0.8118724177127181
C 3.635950186990113 -0.6436300619486481 -1.9684856062102682
N 3.5576489345835824 0.6217744381293939 -1.935927155486351
O 2.870751678548838 1.0167311433086235 -0.816338648535247
H 0.5827869960808945 -0.9413693301838804 0.6626300379577014
H 0.5121037000176984 -0.1732002110351386 -0.9339150772046952
H 0.6133136731500379 0.8277024235994704 0.5290219902232756
H 2.837138309793926 -0.8260710737802287 1.9889694356705323
H 2.7982468181353926 0.9354123341938639 1.820040339675031
H 4.200492352136435 0.02025574419269471 1.2444273983561658
H 2.1962487967712754 -2.0180330616645508 -1.1414355982319313
H 3.71430278677853 -1.9363628328447027 -0.24757272305488154
H 4.1438604299439055 -1.12070397578114 -2.800039154059615