18

C 0.9724352667637415 -0.2254044709969814 0.2860265007844144
C 2.3905657138024035 0.015131819273526135 -0.16241643941916353
C 3.1963743727248635 1.0892912792369336 0.5706713419506757
C 4.103473552492453 -0.06470664777599008 0.984442266519492
C 5.533015125537867 -0.0003151298460514181 0.49922251610685014
N 6.273746378295552 -1.1937271835942744 0.8450305772100649
O 3.28649138863367 -1.0129471472793838 0.29149980213062
H 0.3166811759233718 0.5852076548031429 -0.04079664414265456
H 0.9192026307797698 -0.3072844585134833 1.3829433096845969
H 0.5886562876901099 -1.1638840282770633 -0.13212319800962918
H 2.4217641111736867 0.09957719799270905 -1.2547494331487308
H 2.664039852381664 1.5843121932108466 1.3875402121906943
H 3.6625373898215408 1.8414514689445924 -0.0591288953075415
H 4.10698359608085 -0.28926180190431733 2.067088938455205
H 5.9647144897676725 0.9448765917253017 0.889022871485238
H 5.5076838265466055 0.088045477616256 -0.5935212484478388
H 6.400900434645246 -1.2452994364083663 1.8463830894511564
H 7.192617048424436 -1.1835544259258457 0.42287524150102435