14

C 0.8997218219112384 -0.09711793632740777 -0.06611643769304279
C 2.368647950941409 0.09236526992265903 -0.058017796300278195
C 3.170855944970254 1.1777627714030263 -0.05312344674383442
C 4.4824257023712795 0.6394814803957677 -0.05568744745922824
C 5.782146824321423 1.3589877561451655 -0.04983849281017614
N 4.453722554499796 -0.671077715060654 -0.05367710781558932
O 3.115625447798366 -1.0157786295715796 -0.053209951045675795
H 0.39615027910768563 0.8725442036830303 -0.06632492480445894
H 0.5722949305031698 -0.6552323973509261 0.8133440327364297
H 0.584719210649588 -0.6522898229112418 -0.9466750497191605
H 2.887301707110484 2.2169467416793993 -0.06042905613020961
H 5.630717985249967 2.439969317138718 -0.04311409720152817
H 6.382271120626574 1.0975508483723297 -0.9206994724229525
H 6.367876263784114 1.1012948215790554 0.8405931476333676