14

C 1.0653895750404152 0.010812113870632703 -0.027607888427442606
C 2.5378646667840274 -0.12863626662428096 -0.10124919645642234
C 3.3038801383297454 -1.2200405580183087 -0.11933902644946154
C 4.74077407628184 -0.815791048293891 -0.20512991323963425
C 4.685114400948981 0.7122391419465904 -0.2276478607788041
O 5.596187625842126 1.4969258882675185 -0.29165380439012695
N 3.3478730865061066 1.0205302784384271 -0.1685056032980005
H 0.599414490272376 -0.9679944387669841 0.01717706407265328
H 0.6776612177759861 0.546874358898499 -0.9012591591701141
H 0.7727202923458043 0.5796772507685951 0.8546024729377075
H 2.94249138433256 -2.2418111815052737 -0.07810339110512424
H 5.260152059398355 -1.1672881661896923 -1.0972941451996276
H 5.352638697263513 -1.1377211972156476 0.6550330224615304
H 3.005832651660358 1.969700843413579 -0.16652981535674236