16

C 0.9627363660076874 0.018169825145828027 0.14794261101724257
C 2.4485011080572217 0.11975277187246129 -0.11798984125716555
C 2.7662098766921415 0.11717485432767456 -1.6081829472128926
C 3.1940706705806843 1.2155755171141702 0.6963142585523021
C 3.9275405584284195 0.05873915762923469 1.3859029075277172
O 4.761260333540289 -0.04874675435730092 2.241584549761824
N 3.254166511976306 -0.8601747354586171 0.6433523248352806
H 0.43085694138392616 0.8561845035792752 -0.3133159817633291
H 0.7620821547980114 0.018132375942110746 1.2189689966801223
H 0.554647123565917 -0.9078901872982368 -0.26985658050125655
H 2.2702391870635563 0.9513248820931619 -2.100104377643993
H 2.4013529011723938 -0.8089590681272623 -2.078618368357554
H 3.833577753802971 0.1927264018006279 -1.7737270696882466
H 2.564386276465053 1.7973890482272044 1.3713373401947224
H 3.836385417742214 1.8763377185477284 0.1295375949335006
H 3.2860386316816363 -1.8687550744199373 0.626566877483962