16

C 1.11917801071435 -0.06568422415748967 0.18288467713456275
C 2.592696540873756 0.04493511367448302 -0.13756275393010167
C 3.352948231669943 1.1511966931380635 0.6173121895848689
C 4.008487201117437 0.023928145307830506 1.4366274113983184
N 3.4739679239624657 -0.9667794543798002 0.4879360064907179
C 2.785880211920104 0.031944626668449605 -1.6326771134246167
O 2.9765444860491703 0.9995741663953184 -2.321518863178532
H 0.9708458834429461 -0.0912094843147904 1.2721252592231873
H 0.697969987006799 -0.9909643160920327 -0.23905580000007381
H 0.560255249087847 0.774792671985158 -0.2230754775945925
H 2.737574205507031 1.8615337924117674 1.1679355417160568
H 4.037712472442114 1.7090550805435643 -0.02361395527056927
H 3.6018923997207173 -0.05342238579908098 2.4439719450719704
H 5.092827943849317 0.02675065313578455 1.4943150859594563
H 2.989098191810848 -1.755233680311511 0.908028086837627
H 2.737823952505839 -0.993890358077377 -2.0790081180249533