16

C 0.9174987768230592 -0.04922899226953999 0.48896271747655534
C 2.289008421635162 0.07130684552370302 -0.12981529083919405
C 3.217974302371338 1.0974080966543305 0.5578245902988297
C 3.9730729995756935 -0.11796301321858134 1.1250188953544251
N 3.23611971405285 -1.0107583099560515 0.23226598289591616
C 5.465457294059926 -0.1724604668474082 0.9058816653292073
O 6.19475721211341 0.7828260099225032 0.952788646246354
H 0.29853468388678034 0.8242210138529058 0.25683947540426877
H 0.9772285582729039 -0.13774814396694338 1.5880594958130778
H 0.38783981011681823 -0.93028330153533 0.11525965846509971
H 2.193158824059869 0.1857092717265153 -1.2057044958720935
H 2.741807531277405 1.7501236370073414 1.2796279399051127
H 3.8288329798369483 1.6860577069621483 -0.12625809791633696
H 3.79953918474347 -0.26987555684366343 2.196892284405235
H 2.8005444848221486 -1.820405317039836 0.6740194392704284
H 5.849744121834435 -1.1906060298426902 0.6729414393235212