12

C 0.9413842196184828 0.09038119249139626 -0.0686538504177945
C 2.4140883322523057 0.16544711444305368 -0.06871302381895003
C 3.2685763203015177 1.186204608322434 -0.06467846791008809
C 4.635432567375714 0.5924495335620146 -0.06606544599946035
N 4.667819060609316 -0.6765270803748362 -0.0704752904757658
C 3.287201613468484 -1.0796188688344897 -0.0648569585263906
O 2.9069504910641317 -2.207689559287733 -0.06402505147006521
H 0.4829936419757922 1.0819431860531228 -0.05822065442112445
H 0.5842991026050454 -0.46076600190608835 0.8040262616773359
H 0.5781756141461153 -0.45353833005365024 -0.9366867778702473
H 3.0394943641689967 2.240748084150852 -0.06593243149174291
H 5.538551668376874 1.1857423371275442 -0.06481986692728264