18

C 0.8949357336973913 0.023992132558305585 -0.18681091483707138
C 2.3749853575267896 -0.09568365461448292 0.061285981794594664
C 2.7561677408445857 -0.10532420717660952 1.521475078813207
C 3.2205882610565784 -0.9251029926582202 -0.8876694203624891
N 2.731194398360724 -1.641881478362072 -2.0269258575729965
C 3.3041486244464964 0.5674207334807603 -0.9167323376017159
O 4.416009047689869 1.2331642432876666 -0.42567367247370796
H 0.3510904051561396 -0.8028908064120899 0.2832313299848381
H 0.6546374907572137 0.0032674418307878958 -1.2593066923279645
H 0.49990057429037704 0.9594261773478183 0.22235769169827568
H 2.2987194098714117 -0.9571277725928773 2.0253591180192134
H 2.4277958688861156 0.8112954710393299 2.018099868524069
H 3.846524976481357 -0.16588371474962366 1.637617971358164
H 4.066065720367468 -1.400740119824031 -0.4065912152348323
H 2.2743836068629246 -1.0431101813952484 -2.6919874034457734
H 2.0777808886814957 -2.3679590633390015 -1.762855643315435
H 2.8210335648510227 1.0507832025752795 -1.7671965032722652
H 5.15524564370945 1.043290840172388 -1.0092800974902063