16

C 0.9226219296963395 0.028461355806768077 0.11867857274217804
C 2.4133439410722937 0.08809435625062877 -0.1502399299149659
C 2.734679844550869 0.06860294175273919 -1.629292379957057
C 3.1970552155744016 1.144645113279366 0.6780263498223148
N 3.869695508692439 0.04202423892010565 1.3504756203930948
C 3.2285210501953014 -0.9482074002177189 0.6648416805031372
O 3.29077878831553 -2.1434989819687953 0.7023669138219502
H 0.4051988130876167 0.8609367690395625 -0.34744335283290134
H 0.708584889340811 0.04807985564660792 1.1916122317863231
H 0.5151581201938854 -0.9020183452470679 -0.28009522167615103
H 2.256393741220689 0.9082426251747953 -2.1378762219805254
H 2.3771858012570846 -0.8534478598016235 -2.0773077819835706
H 3.8146516860241046 0.1292683607674174 -1.808270967205446
H 2.571216668019507 1.7579493772327994 1.3447252547471982
H 3.8553560195468366 1.78799105079474 0.10071205158134525
H 4.568804303125264 0.007537502796652749 2.076640136958734