14

C 1.0493228923700484 0.1008937147902376 -0.07819442751716953
C 2.568415499750875 -0.0006898017439026555 0.04633087631488773
C 3.2022695027052714 -1.213655295026893 -0.562510535959755
C 4.111778547961199 -0.828999298103603 -1.4548885082591838
N 4.175840490510649 0.5630699981699027 -1.5327659753489038
C 3.2690928404133786 1.155184191774405 -0.6898559340608322
O 3.069387228113753 2.3347717566855963 -0.5745166559979593
H 0.5694128054362362 -0.6784812433961919 0.5074333927252476
H 0.734035736818035 -0.011149116681315924 -1.1200535796194102
H 0.7103073815257295 1.0699087730705665 0.281951411475302
H 2.8467239229666075 0.09824996590249038 1.0963383773649835
H 2.963887955234624 -2.233788307818355 -0.3096856958604501
H 4.760988569801905 -1.4277144149409056 -2.074932292758598
H 4.746130420503363 1.096311225338264 -2.167988337130258