14

C 0.924993734352555 0.04075536277763894 -0.0270175045114488
C 2.3996140723345887 0.1618028206733938 -0.03016623830117326
C 3.2323196837257018 1.2424363549184128 -0.0240215366208983
C 4.568978853897958 0.7297814280539293 -0.01664468592300988
N 5.7135667285532605 1.4811166642132583 -0.00979630352679204
C 4.438678024622488 -0.6265532544439921 -0.01572892948630563
O 3.118079083342672 -0.9695877223316687 -0.022116450332427578
H 0.4683317757071547 1.0259047770356935 -0.03035120714321885
H 0.5746096316387903 -0.506209238065464 0.8495375165197135
H 0.5812387866284683 -0.5071796308445574 -0.9119741115493913
H 2.936362733735204 2.278880838592124 -0.02601434078062167
H 5.6521805675992685 2.4799128825740704 -0.00951710889118761
H 6.616404912404163 1.0584571998519814 -0.004029453565928121
H 5.146534220399572 -1.436498748526381 -0.015484394481469326