18

C 1.2021062370238167 -0.714314023114554 -0.4240538193662708
C 2.3570713609843317 -0.05195720110831909 0.2728119881715
C 2.0522536875621205 1.2756750031169963 0.9547211603004864
C 3.092642713319287 1.3541948157525254 2.0950677296107423
N 4.183894984059892 2.3031245087801926 1.9622409290208727
C 3.6478466408106716 -0.08712269226917507 2.1276767860899364
O 2.7870694701736745 -0.8825759947421543 1.3441251374127943
H 0.8524589083903977 -0.09225046200716784 -1.2610547186020618
H 0.368919952785924 -0.8601205190624235 0.2638395889239053
H 1.491417526558186 -1.6808273564257514 -0.8241594580130749
H 3.188880133866158 0.07551658728450934 -0.43285109777127373
H 2.135519894960031 2.130636213491451 0.2767428986332809
H 1.0402741248395302 1.254231732659803 1.3545697477249785
H 2.587609416617076 1.5822513854084042 3.0347962670037245
H 4.655927709881232 2.1762492619779725 1.0747227399691708
H 3.8379824960200164 3.25935217246527 1.9844960376241
H 3.68932304820892 -0.5080376363385103 3.127364506308277
H 4.666312456878258 -0.07957038817571485 1.7090423476114154