14

C 0.8467160511359466 -0.08594768223353826 -0.022974152604584172
C 2.3354334814183653 -0.08980524697354929 -0.031121186778173538
C 3.174384267356428 0.9940867558321164 -0.023706513064935673
O 2.939296765323936 2.332985841171436 -0.02125200821074974
N 4.467031839713623 0.5841751658607088 -0.030949239949765346
C 4.499282054068139 -0.7873728696481964 -0.034704280556435756
C 3.2068152317539473 -1.2276963236140968 -0.028502794903091908
H 0.4481903824608678 0.9305514284626023 -0.018880672833613128
H 0.44438564370209555 -0.5826394471010965 0.8588448795843137
H 0.43358677937059237 -0.5799181568230913 -0.9027958342333078
H 1.99551623369133 2.4750579424936916 -0.01949241918817653
H 5.250042163206607 1.1950966384120216 -0.03197006947320826
H 5.428204047074249 -1.3292912117870532 -0.03390488052379555
H 2.8882604660351214 -2.267554227801007 -0.03823023269517191