13

C 1.0186256666444091 -0.09453319665129331 0.08006501298778845
C 2.485571262411169 0.07780777412177436 0.08869485776024279
C 3.2955654175477336 1.1670368066308097 0.09355029608753937
C 4.600556885121612 0.6069683717959787 0.10014308847941104
N 5.7778155632003285 1.2832190652604194 0.10069753968454662
N 4.5672436596460795 -0.6986386030941037 0.09909877244707646
O 3.221212591990807 -1.0306540046603876 0.08959117836701119
H 0.5275470537632736 0.8823943638280046 0.07504521750526146
H 0.6844979440938301 -0.650738769323189 0.9582736486137701
H 0.6974438298002437 -0.6546658365824348 -0.803221873577357
H 2.996769175158902 2.198818232454936 0.09318281325633256
H 5.800252812690819 2.2796159619718073 0.09824008070555532
H 6.6413093298822785 0.7741438525775485 0.10189252849362171