15

C 0.9742417828802621 0.006242421579793791 0.049985519654785864
C 2.47451758820155 0.07130078855027405 -0.027859581265295634
C 3.1382422215754 1.283820931807859 0.618382742630318
C 4.439228040342771 0.7166443305262034 1.1339691242739784
N 5.4467181036549315 1.249097224066664 1.6784044494082824
N 4.372654285394909 -0.6513055605486753 0.8663357472303038
O 3.019450850983051 -1.0227340008004238 0.7051227304368128
H 0.5342838651013417 0.8122286956649111 -0.530109192056031
H 0.6349420348447373 0.09123961804929302 1.0832490766957734
H 0.6121157866224409 -0.9450577250863884 -0.3583542958071554
H 2.8138304007565482 -0.00809403484181058 -1.0677659166485407
H 2.5501422339407362 1.6531986480018068 1.4667666716979186
H 3.297357549291715 2.1171651935052567 -0.07724248471007325
H 5.341023542274037 2.254775287459292 1.716869926999953
H 4.798754764355377 -1.2602663692627367 1.5484324403994523