14

C 0.8852816378625954 -0.018106258901640724 -0.07575183339049595
C 2.3696906660228927 -0.006351186754532192 -0.1012784407152463
C 3.1806362584221692 1.1050458581175808 -0.21872298042492214
N 4.4700017767503955 0.6774257907545327 -0.19970396808954452
O 5.554826684195635 1.493583170824558 -0.34748177482174125
C 4.533536946357044 -0.6761190731867398 -0.10130732847245283
C 3.2429908721103087 -1.1238720076425808 -0.03197614079162417
H 0.48032296019534715 0.9924152976585727 -0.15265310157077414
H 0.5077478433857834 -0.46660342970126023 0.850750226166096
H 0.478139614811213 -0.6085845629629749 -0.9089887864478069
H 2.946773867212542 2.159380113475601 -0.3154449808343543
H 5.802371441141856 1.7652625814438356 0.5411298345711475
H 5.480767911732772 -1.184018198650909 -0.093250201614445
H 2.9451616825341227 -2.1624540462449735 0.05782270618153755