14

C 0.8261733543753211 -0.15861572138303068 -0.032889316503913565
C 2.316408691642811 -0.10886641727969669 -0.026082782090910306
C 3.113350765041743 0.9993078363856378 -0.03403477404197949
N 2.8618794667146386 2.3291820572614292 -0.03255233156379287
O 4.4181773492031615 0.6569579635632681 -0.029594702992578062
C 4.483717430867813 -0.7078136822375488 -0.02701657282929886
C 3.2275610595545348 -1.211196742741146 -0.03295932959792163
H 0.392568993055008 0.843395665072178 -0.028004144858543682
H 0.4385998718168235 -0.6714795388723503 0.8496892931466173
H 0.43694942360670314 -0.6808193257116213 -0.9094421234707065
H 1.920975306755145 2.667581388450254 -0.037585620198081066
H 3.6175501124318057 2.986601806865578 -0.03441944790522438
H 5.464021446381523 -1.130048501493256 -0.026789403252013608
H 2.974666075605748 -2.263211946966041 -0.022187668775103763