12

C 1.087981874165126 0.12220587530350605 -0.02137509081605277
C 2.5503044202508534 -0.02765239798820024 -0.01564934283435973
C 3.3147276921270943 -1.1299129362771254 -0.021462476783489517
C 4.712318383406593 -0.671934351668753 -0.020187674153704205
O 5.741611894414852 -1.273903538366894 -0.01956587190966487
C 4.558842004294396 0.8591812241275277 -0.01722684139416396
N 3.3411582920998026 1.196904596988984 -0.016475793648491208
H 0.5695334180846408 -0.8274028739846797 -0.02128907855190284
H 0.7832030415023109 0.7103352280593959 -0.8969458667502805
H 0.7866746330127887 0.7063491075021505 0.8558894687004795
H 2.9995665170259955 -2.161149839779564 -0.022387091029126577
H 5.379237523343327 1.5577993446838427 -0.014133171525399064