18

C 0.9004920648584639 -0.2015215242013306 -0.7489694670983921
C 2.3838946558516505 -0.42689169917799047 -0.5746487500618105
C 2.8459253162451015 -0.3807442078693278 0.8635350919037732
C 4.35711605956629 -0.37447945104384966 1.0697347531935903
O 4.9744200259730755 0.7769032128117949 0.5753645080921009
C 3.0717359334822505 -1.2557274145385333 -1.5841826493600695
N 3.2774608104131104 0.201924829517558 -1.5575071524751412
H 0.32874637854647604 -0.9546614941403517 -0.1946517330595086
H 0.6149211660755637 -0.265560840751571 -1.805125304729358
H 0.6085408610301718 0.7759893379502718 -0.36597831072723747
H 2.4170969811775227 -1.245736948714609 1.3925186824933382
H 2.443981962120071 0.5174785890441783 1.32635676813441
H 4.801622521813943 -1.282335378925958 0.6372592828335037
H 4.559729014222002 -0.4198421659103411 2.14171269803422
H 4.659465852845049 0.8606419547857248 -0.34190977287321167
H 2.4835683044065275 -1.66591914470043 -2.390168325655807
H 3.944947236933862 -1.8382727233907874 -1.3211523078098049
H 2.7548980784701 0.6488098932776712 -2.2909010426125143