16

C 0.9878194315237623 0.06267222528241606 -0.035908692474179396
C 2.485394438707021 0.06557679594119 0.10359895102366663
C 3.0786287168338013 1.2688179765007186 0.8356492715649595
C 4.361205058603176 0.727624110470724 1.4379064210169528
O 5.264889387417351 1.3598006865938541 1.9080889651182602
C 4.299252191176035 -0.7927586418109019 1.3036003884471512
N 2.9601333281294586 -1.1106654498637716 0.8395885415976291
H 0.6429489336998668 0.9158355523465697 -0.6283071552901663
H 0.5083565073893571 0.1330450832137075 0.9544681176532996
H 0.6360341374373847 -0.8494642801790696 -0.5157287139028255
H 2.9349220272207632 0.011640379716321847 -0.9010299135259024
H 2.4298969343775045 1.5709427601593846 1.6643630109814498
H 3.271643892554808 2.15040873072717 0.22342639603354678
H 4.567127888776796 -1.2852712303121858 2.239325451270496
H 5.055535447191768 -1.092082177555916 0.5566129091024153
H 2.3586927944232747 -1.2632881992419178 1.643184265308422