15

C 0.8673117428239365 0.09225455040181366 0.1756848708722024
C 2.3657661477181207 0.09503976857587494 -0.0031155891797010112
C 3.1857094396979475 1.163088865255852 0.7543038390050271
C 3.9025332199841194 0.002035327911486442 1.4503586585842005
O 4.801372053708909 -0.14719623860747247 2.223807482083733
N 3.0888871501604243 -0.8876843519612649 0.7997064241651537
N 3.080929740767398 -2.267063911983125 0.6992144143070949
H 0.4059666569014513 0.9075678680838031 -0.38568763365917436
H 0.5956997152178821 0.20721163892441147 1.2337288246236946
H 0.44087481120514666 -0.8477021411656082 -0.18916170490449816
H 2.62742547576524 0.03124211376905157 -1.0634103831095976
H 2.614812216804507 1.7995483688761336 1.426793681485832
H 3.8490586404236384 1.7831197583432223 0.1362095757370377
H 2.8170616135369757 -2.677002793319807 1.586896952437256
H 4.017463612266895 -2.6005575485828776 0.47009333847131557