14

C 0.9102405028244565 -0.08349671679053583 0.15938279342055658
C 2.397024477930024 0.007487471762905156 -0.0014188547089024712
C 3.1610778188126436 1.1565442411980495 0.7020177432530756
C 4.035651143522804 0.07747338266569223 1.3461134347644272
O 5.053011045847292 0.02688710025470726 1.976119564457392
N 3.178857949214189 -0.8811422103823372 0.864583766150153
O 3.4463472501804864 -2.198799269830956 0.6047480497135929
H 0.4076236949676697 0.6916923202597967 -0.4361925338255929
H 0.6108735063989683 0.04623725886887678 1.2044379709493829
H 0.5411556608834116 -1.0522216679928815 -0.19594800053272737
H 2.6990633836018088 -0.08940083734704207 -1.0461161503854919
H 2.5806292496633807 1.740485758535621 1.4098755063431236
H 3.722486652513413 1.8137857736803962 0.033157293036899495
H 3.018268560694968 -2.6992560859909585 1.3068023669855002