14

C 0.8302686301936638 -0.051048584420168415 -0.30981888994605106
C 2.1277399507895356 0.07045655682624816 -0.03822183470643631
C 2.834612091946062 1.3607374591675887 0.24608107950864191
C 4.257484184757725 1.212441581929312 -0.24776586118801874
O 4.904199500085425 0.10141608569228526 0.3626444041648516
N 4.254347081749739 -1.1009530402547492 0.28591552418647886
C 2.9925054930754214 -1.0969797992411985 0.05343644936964725
H 0.17869115609779104 0.816371973924808 -0.3692522422953798
H 0.3803616280407682 -1.0223216362942207 -0.48401835328983833
H 2.847140518915301 1.5553682189361295 1.3208077118559187
H 2.3486698919626834 2.209427660122054 -0.24458905061564082
H 4.8829202682357575 2.062869262161752 0.00367418068421846
H 4.271985357651549 1.0596814998274227 -1.3362255106809557
H 2.5556872095790726 -2.0861192156274906 -0.014171800460630804