16

C 0.9951685377590997 0.05143314304684683 -0.013039928325944881
C 2.5221402064200813 0.053190765492649894 0.014814358946785858
C 3.0843229437299056 0.2764845938796728 -1.385046627004068
C 3.105633247641369 -1.1969237044152465 0.698380177202913
O 3.814965946059884 -0.7472291240135213 1.865419659761858
N 3.7276364412414895 0.6287714270438127 1.9480508314622207
C 3.0451278862774203 1.079276496820435 0.9877399811559048
H 0.6282901514477164 -0.7495278371561283 -0.6565438182980302
H 0.6086616128974672 0.9999793535682684 -0.3941953805176651
H 0.5837161539360158 -0.10204291714200327 0.9898105222118939
H 2.761668742193252 -0.513688935673497 -2.0605495855867506
H 4.173146973914739 0.29398825178130605 -1.3744295196660883
H 2.731463957372903 1.2250859773959017 -1.8013300223186537
H 3.8121426285509616 -1.7273451552597174 0.04916872123182587
H 2.326798205819963 -1.8981926367177835 1.026555289544915
H 2.8851865078105656 2.143500483024642 0.9144883913360835