15

C 1.096338738728922 -0.03415888213651745 -0.03308923940882443
C 2.600020404090519 0.013325541970435688 0.08889366476088559
C 3.179034796265293 1.1764456594311024 0.8750683359941146
C 4.503629979091552 0.5974450774406028 1.3738416822569548
O 5.512524950329758 1.1712320507116676 1.685859056862389
N 4.324396830442926 -0.7655573904613654 1.3647411199576338
N 3.113443154489408 -1.1840041145459128 0.7728248209533837
H 0.7313122204685101 0.8250869035031899 -0.5896443617269044
H 0.6257747722734663 -0.017646544051537285 0.9561316504159253
H 0.7760269104786605 -0.9392823128140415 -0.5543957971992817
H 3.03922760192514 0.013204353003300615 -0.9124135705785891
H 2.5543143116258675 1.4394100023491248 1.7383122215196198
H 3.359856393969436 2.0845684636791124 0.30443354335601425
H 5.117472527993472 -1.380909890856499 1.3038423475176169
H 2.4843926171198123 -1.4008203431246977 1.5417579153698562