14

C 1.0261882706435264 -0.06179661381937698 -0.04390020471761745
C 2.519679693285954 0.035705727384876144 -0.03692304087749393
C 3.1357315735079703 1.2017818409080732 0.7189720278709197
C 4.430189617177748 0.6142409994577266 1.249414015674447
O 5.349611737008098 1.16910460043946 1.7882669390371166
N 4.355734927411734 -0.72637658155537 0.9598304408941694
O 3.0437302706274876 -1.1152565139416306 0.6359316967308667
H 0.599732325107326 0.7770670136273987 -0.5938079477914151
H 0.6341413593172608 -0.05053602148571633 0.9732331144912545
H 0.6987704587759567 -0.9851963350292408 -0.5307102119927106
H 2.9147471998911514 0.02283488401667333 -1.0703120369590302
H 2.5203147162921935 1.4981739224794293 1.5774130741122652
H 3.3239156924497237 2.0897036408929184 0.11300633396415688
H 4.807501491371925 -1.4108182157829279 1.5536380020171456