12

C 1.0080010852771637 -0.04582947537321662 0.002911262448008131
C 2.4866232290324866 -0.15041776411620406 0.009660952367962607
N 3.2032743952458542 0.9330653224722735 0.012312290433814129
O 4.531337582939308 0.4999428080239038 0.017837000961732182
C 4.547704686995441 -0.8239015573952087 0.011697938699192717
O 5.723024634783904 -1.4281660566081968 0.022837512139641972
C 3.288421994596641 -1.3286988659092196 0.007851650697702344
H 0.6985805106949297 0.9918735178494981 0.005113877574031648
H 0.5802888935599947 -0.5383664744984302 0.8894188407957744
H 0.5892660525271588 -0.5379794390360135 -0.8787514380027903
H 6.419369440600822 -0.7606901128321971 0.0206099916853944
H 2.98199647836926 -2.362213172442062 0.0058711177208348