12

C 1.0642502713691235 -0.01133716656599829 -0.03913671563231723
C 2.5464992866585145 0.0734711268646826 -0.039141768153790425
C 3.3679235085363866 1.1622946004576322 -0.032779747521835295
C 4.724380324011199 0.6863592110315737 -0.030346181607977835
O 5.8033665047881335 1.2026521446281095 -0.02682045408153411
O 4.625624645320645 -0.7317539258812649 -0.03289922895526793
N 3.3025686664210068 -1.030487623261485 -0.032761728250420015
H 0.6291066955116917 0.9814531714491526 -0.04210692332779898
H 0.7059113243100947 -0.5470145630000123 0.8473039975623421
H 0.7093298831887729 -0.545994566395855 -0.9297374268052554
H 3.0832573345185 2.1914632787371273 -0.03801684015347616
H 3.062417305264238 -2.009660159829209 -0.038898655591003146