16

C 0.8563810000132878 0.17396613122607316 -0.1585524876494761
C 2.2895057361114386 -0.23825731565992914 0.07955719650880032
C 3.005332717044591 -1.0151233005443057 -0.9510883881450498
N 3.3435030935543866 0.37969899425012715 -0.7130638404323767
C 2.6202936728324877 -0.46652809955507557 1.516108556635899
C 3.8925941592806326 -0.06926038427264447 2.0948049943016636
O 2.7190922482523465 0.6761516103704674 2.3473392267619935
H 0.6562065685754324 0.2835876755381076 -1.2305570176566882
H 0.6494000364374324 1.1213257604387201 0.33540477320129886
H 0.1682790627397825 -0.5733613425226692 0.2400107651612151
H 2.455187015436322 -1.273129406623323 -1.8555507791230204
H 3.7731377050014134 -1.7235824568838818 -0.6588391758687497
H 2.926072584334838 0.9778433153037583 -1.4261092302579679
H 2.0838263128301353 -1.300125642796759 1.9765606146821466
H 4.622435955172471 0.4233234639013204 1.4533394090640384
H 4.2901430204429305 -0.6073093874545599 2.9574009838526565