18

C 0.8324035707224422 0.6673509180037634 -0.5736152271826079
C 2.1052339689836757 0.013539863252207587 -0.10951294042806178
C 2.789599019410928 -1.0276032278252114 -0.9033513131824693
N 3.324443243174284 0.3167337146396196 -0.8473921208068153
C 4.5418375780855404 0.49151366859215495 -0.07181103258039903
C 4.834973151358812 1.9635343958093892 0.12088540095077159
O 3.805598168731007 2.651389372453291 0.7848131342019882
H -0.03259712919532691 0.08136025203639503 -0.2463581139336196
H 0.8152824681402604 0.7372288898478891 -1.656661288159829
H 0.7334963849188784 1.6681326089838433 -0.15552181464303344
H 2.226428743900698 -0.06949836167262605 0.968994011947302
H 2.3867626846201855 -1.337342354289167 -1.857183434690876
H 3.3258159893102874 -1.7998979635590462 -0.3568934115799167
H 5.366959194429109 0.030511857009508567 -0.6152248935958965
H 4.470788516702654 -0.014427875817155674 0.9143879254101714
H 5.03686039709104 2.422107636581332 -0.86092666363147
H 5.733575266162718 2.0737205090974147 0.7393273798746072
H 3.0330785106773646 2.6294622781119905 0.2051400995080466