16

C 1.1432570551218473 -0.2255591122045516 -0.9782763237169064
C 2.4009873494260683 0.28062430181067344 -0.3420327911437009
C 3.4203032518695204 -0.633308194447019 0.25076141536497853
N 3.653385403711488 0.00033557324504459446 -1.0111152855858418
C 4.667429516210944 0.9379828150680545 -1.1700027342864991
C 4.364763959569137 2.0104804085994212 -2.1928171231034557
O 5.7357784428271525 0.8438944495605184 -0.606678061972911
H 0.3396718262875047 -0.3105901960349023 -0.22611036716414734
H 1.2983955402445269 -1.2081306339505564 -1.4280624110189621
H 0.7973058458257217 0.4557995576638282 -1.7583883932785096
H 2.3256081967781075 1.2527718042273028 0.1355154156619977
H 3.254950909349745 -1.7095775251404146 0.2145588813286027
H 4.011361477589442 -0.2847668117565288 1.0886913205048763
H 3.3280162116191008 2.3533043654408297 -2.113591773483001
H 4.4960119960081935 1.5866956753836825 -3.1893096727252606
H 5.052093020317558 2.837252399133228 -2.063621125358776