18

C 0.9570179044043747 0.03381252619200208 0.01659465469912715
C 2.4671035175337983 0.022751272943710463 -0.01491720541661049
C 3.2411772499048674 1.0842271296131818 0.7741911638807685
N 4.19765709753816 0.03888074278830676 1.176045991398843
C 3.226060692423235 -1.0144455229334621 0.8242810084610782
C 3.830967783554126 -2.227467613809644 0.14835809691443644
O 2.8461011162702543 -3.1340355724552564 -0.2951725587810551
H 0.553965692860879 0.9075277587215925 -0.512856689516576
H 0.5871972288657854 0.06902841194236935 1.0472435828981677
H 0.5505070038409445 -0.8517629078838624 -0.4661171766275746
H 2.8205133230863884 -0.022506864003249374 -1.0529201230572296
H 2.6404896902236983 1.4749515353690592 1.6118392236784718
H 3.683183671382381 1.9161044312573188 0.23463237128083897
H 4.4989364298544094 0.054130795764247536 2.1445783926020643
H 2.6111613331139703 -1.3397331622891997 1.6864545111116989
H 4.546284596620163 -2.7074979645886508 0.828592170449172
H 4.385979968742651 -1.9064330937557468 -0.7312546578897579
H 2.377805732638232 -3.478552855566437 0.46669579885110457