18

C 1.7483831745467362 1.2876955886093944 0.8665070978748289
C 2.7427020591546594 0.2578010344145381 0.40738730148322444
C 2.294491406126388 -1.167164790916765 0.5837462185824127
N 4.150262399232842 0.5725854160382443 0.6955637826235082
C 3.696353721809852 0.5326872886036708 -0.6996385545174805
C 3.7693330877180276 1.823906154534846 -1.4497250009257832
O 2.8799290590360185 1.737988736831323 -2.548892207914438
H 0.8287879623235 1.2358431467049846 0.2725584577401396
H 2.147846567673085 2.300120051794426 0.8011403548802659
H 1.483711171757252 1.1057892279258068 1.9125888405951557
H 1.3556062585918567 -1.3431844321135598 0.04797920873534755
H 2.1238980068300464 -1.3903266031500914 1.6427532593624916
H 3.0400933746275354 -1.869543298450982 0.2081509844224433
H 4.664501451327306 -0.27164140540767107 0.9260269641084232
H 3.972751135376451 -0.33612884788175795 -1.2889145023550836
H 4.806158877484492 1.9692859070535762 -1.7949817442844638
H 3.5233783001035004 2.6588314841633727 -0.7910272236048421
H 2.9869538157138495 2.519859010104136 -3.0925967037803495