16

C 0.9465538026419944 0.014425588228519928 0.03949694217991989
C 2.449923277805883 -0.0631288169874997 0.0032207984250095393
C 3.2736737058065737 0.9040428488253736 0.8946387477640353
N 4.179530709042114 -0.20475093612063022 1.2393109366994024
C 3.1626152509217422 -1.1792046075392717 0.8155867580240954
C 3.0042648668423273 -0.04035597957012976 -1.3881290015532974
O 2.3351577059919366 0.025294022743940898 -2.3933074115153388
H 0.5895402492540432 -0.002932889498239619 1.0718812263062265
H 0.5027652786767974 -0.8143286784022828 -0.4999106591137648
H 0.5998966014813598 0.9330689953235972 -0.4395994067704557
H 2.6681714068104436 1.2748272667796305 1.7215310432695718
H 3.760853921493024 1.7585678061531884 0.40640952880727255
H 4.482468931886886 -0.24951993876947426 2.1996899304479074
H 2.5069553656633565 -1.541041018834096 1.6231870052177717
H 3.5547040624716795 -2.0360011184776248 0.2622667629457698
H 4.11201761696855 -0.10195551207424075 -1.4428110208753129