18

C 0.4692233323679149 0.1193804089331988 -0.7450364790974847
C 1.8212786181588685 0.37575563572601683 -0.16601434066320442
C 3.03629897670722 -0.4674835840597275 -0.5253389971292964
N 2.8706882394421838 -1.493839636899821 -1.5173590184873254
C 2.9469161847387455 0.9803727179480092 -0.9491075462419363
C 2.7823755106333805 1.3603111538714796 -2.3863729514769187
O 3.708205417328254 1.8809331047442068 -0.1919700626499541
H -0.10841597587087537 -0.5601044718541086 -0.10549143717243371
H 0.5408742677332117 -0.34374062111876885 -1.7404137296863382
H -0.10310425916557404 1.043332936355242 -0.8369911505222576
H 1.8216589668896583 0.7016673970913331 0.8740205610889965
H 3.7272591846125445 -0.6429407025401735 0.2944389651346703
H 2.4833341955557726 -2.340108528434406 -1.1119233390199488
H 3.752721356950485 -1.7347241792713755 -1.9569808544337837
H 2.246090367202637 0.5869839440799911 -2.9383921145398193
H 3.7680643804375653 1.474909153714083 -2.862383569776238
H 2.258580629698162 2.3079803648337407 -2.4822129058491966
H 4.602490126018856 1.8844859662538118 -0.5511770615858652