16

C 0.8814613683369912 -0.12896733511325037 0.030947623961407884
C 2.3839004230334813 -0.08946845367158612 -0.01338396627195142
C 3.149920016688498 0.9975647488303631 0.7581968691680582
N 4.136609556431658 -0.029314188013282293 1.1439867063261033
C 3.191005085373054 -1.1027903013543903 0.8411388160200629
C 3.745928249605836 -2.2695351347407646 0.08685264452068034
O 3.2273725839444185 -3.3521854708159537 0.05468917672894143
H 0.4430172943005097 0.7099566712004527 -0.5195807349453276
H 0.5128007882969641 -0.08367075201515972 1.068574481086791
H 0.49812519457162513 -1.053282279881923 -0.4082469550219754
H 2.7329230387155343 -0.12104948907316113 -1.0491700954678504
H 2.559774168036566 1.3784856073586376 1.5977796766586543
H 3.5593329326491614 1.8425486258749717 0.19118165033938073
H 4.481380671475631 0.009924056752343684 2.098062511238469
H 2.5921060108249647 -1.4549017541719529 1.6914928366298412
H 4.676715321939941 -2.037422435878475 -0.4808252470556861