18

C 1.1113656320514549 0.031398575716918516 -0.22541134579214098
C 2.611518580539092 0.06171025932780039 0.022801154914518406
C 3.0989722705171565 1.1495654539604079 0.9647685742187527
N 4.444508906182562 0.7291033737497704 1.309963342138111
C 4.524200095825904 -0.7353425568925659 1.236097301477874
C 3.163521904759747 -1.189595526067282 0.7059664576968943
O 3.191705865537446 -2.3416713077311746 -0.09959300898814748
H 0.7733999231675875 0.9361692588944707 -0.7378868466419746
H 0.5625597783629227 -0.052857132660500766 0.7141660646766201
H 0.8504152516715666 -0.8215424858830461 -0.8518466005307029
H 3.1410244247433634 0.18384733745029253 -0.9309727862660778
H 2.4156553594195334 1.2081923778714951 1.8334452756488766
H 3.1048909402090166 2.1390384591110876 0.5017414725327811
H 4.752405487615542 1.0903633739734766 2.196445688919554
H 4.752733879695972 -1.2023490343759786 2.1991712081383987
H 5.309197166101715 -1.0474550189494782 0.5339350331150962
H 2.4954083915357606 -1.4494343809976467 1.5373592936331386
H 3.793924115779769 -2.1756460466108454 -0.8360323275316851