14

C 1.1330962743460353 -0.05103614864717127 0.23294388176225378
C 2.4462226569387524 0.016870095256660608 0.03157811814172472
C 3.3609001120102975 1.1983477459341836 0.024072034671012064
N 4.50675245729831 0.7316079960126686 -0.7550256344572185
C 4.695582681030133 -0.6791354264736428 -0.4734264093370686
C 3.2833555840593998 -1.1856106655553889 -0.24448042707536954
O 2.9208995070351054 -2.336108509200628 -0.25783399673791724
H 0.5257111067924307 0.8196737409946958 0.4135226619721908
H 0.640813517941764 -1.024157033053709 0.20009316905041255
H 3.615841358747409 1.4741758355931274 1.062558567776637
H 2.901306321139752 2.0869782609848113 -0.4391861129607297
H 5.330266419512465 1.2832278561464638 -0.5817097949523621
H 5.265667042626342 -0.8938824393347049 0.43845804776548813
H 5.17113786585366 -1.2122827707104833 -1.3078483448118132