16

C 0.9828193038590293 -0.04528255335433022 0.23079244903065702
C 2.45340182350939 -0.06249502804015649 -0.15637093210126493
C 2.645151078756418 -0.08906279192717782 -1.6634455882512993
N 3.286822895996606 0.9652359606485544 0.5387243537414501
C 3.9017955741770156 -0.02987280467423004 1.4436855574317102
C 3.229936332641077 -1.12648555359202 0.623910068800363
O 3.294767848081261 -2.3139212463018546 0.5891406229951469
H 0.5063204424400806 0.8611078329874985 -0.15657754157457843
H 0.8470775761058107 -0.0575884986262128 1.316609595563324
H 0.4571327120858732 -0.9089988022222353 -0.19055591268103741
H 2.1860231847273948 0.788745903047074 -2.1161737456755376
H 2.185207716144078 -0.9882673985159225 -2.090002648691334
H 3.7086571552464953 -0.0824460451009338 -1.9060184514608423
H 2.7341744444883433 1.671073663100905 1.0141684463212175
H 3.546212164407621 -0.010551229381021265 2.4810420163796296
H 4.9884711424084545 -0.03215644994909065 1.446313365755394