14

C 1.066003387356534 -0.07586777596639313 -0.0833339664869415
C 2.5321328256821625 0.09193604923729376 -0.07764503188519227
C 3.3827810719812423 1.1371777736747293 -0.0807103072898978
N 4.6894209187569995 0.6832454038828194 -0.07133916158950457
C 4.585126483191825 -0.6031509247990103 -0.07017802735113493
C 5.65178900610116 -1.6197986848830026 -0.0634552100056268
O 3.299950323594821 -1.0440588724386084 -0.0750837702978683
H 0.5948402506253804 0.909474391784253 -0.09107252092994317
H 0.7186748911826822 -0.6182833282575353 0.7985674621049615
H 0.7282098846600482 -0.6202164100314423 -0.9697475539000222
H 3.1499208166486303 2.1936586313240807 -0.08297727844499148
H 6.622277795096595 -1.1058182853304306 -0.06511071661533685
H 5.591171193109696 -2.258875242611107 -0.9418065933679217
H 5.589341208308133 -2.259662629645901 0.8169861077132834