15

C 1.0160055943512238 0.14945069751004755 0.21265796894647687
C 2.457544328008572 0.13739186361686165 -0.25391394944453666
C 2.9034350295863383 -1.1223241901175962 -1.0217737253440087
N 3.9118118748814164 -0.6576119767927141 -1.9796233093791349
C 3.773991657267591 0.5937678512824477 -2.0403974014065556
N 2.7525036038936768 1.156497798722122 -1.2749455363640065
O 3.080401950577042 2.40650000118645 -0.7278776619403438
H 0.8428211251627431 -0.6409422718039406 0.9393292144205204
H 0.337879199777876 0.005865534840923265 -0.6341442330895473
H 0.7784186581177781 1.0944625561877357 0.6892550361148202
H 3.1261180559965758 0.3042799126019604 0.5903860400455088
H 2.0586200143099482 -1.5525085739948672 -1.5815478211920992
H 3.3032632892938136 -1.9015449169786236 -0.38126784541466874
H 4.357417031941441 1.260978519399403 -2.669001218023581
H 2.3614523856574148 2.9735112084675475 -1.005909679244657