13

C 0.9496687911378688 -0.053381127579902724 -0.06976435955226266
C 2.4122694509317495 0.1092487978283534 -0.06419546314224595
C 3.272969725354462 1.1494017781182126 -0.06629651109932701
N 4.586772105130008 0.6960350577947516 -0.06151154141337924
C 4.451797499479626 -0.5932491611912967 -0.05894075801507146
N 5.422950134344491 -1.5264750059585999 -0.050993936323087324
O 3.183082343942162 -1.0457881726288714 -0.05668474976450196
H 0.47601193582110085 0.9268775914372861 -0.07696950329303501
H 0.5934659987646598 -0.5928469052452982 0.8097155990733204
H 0.6013460212680397 -0.5963689146706114 -0.9568257743241437
H 3.034426650814622 2.194940373986363 -0.06398546477269443
H 6.379316662061654 -1.2318797414986502 -0.04733628035156731
H 5.195677757311162 -2.4997368257706336 -0.04375449094357012