15

C 1.0853792448003454 0.09217656132925907 0.4029089514348607
C 2.4598393289746423 0.10102709732794206 -0.21297600006197087
C 2.8873809365489196 -1.2343017132195537 -0.7960875502494544
N 4.136385857512105 -1.1310409230772065 -1.5295670982651486
C 4.426920829167644 0.025099422619027683 -1.959381275404252
N 3.632873844811496 1.1519795749306299 -1.934486152203254
O 2.4263204391927284 1.0709616374258961 -1.273583725874289
H 1.042858181642641 -0.632140613769723 1.2125702062433528
H 0.33897291188970896 -0.19087404768803165 -0.3492604982242654
H 0.8236007037492848 1.0728355953012425 0.7997778504310709
H 3.2130118713235563 0.42785375066708886 0.520424469958839
H 2.097235665104992 -1.6052533173794603 -1.4578132136318553
H 3.0171485925879162 -1.9703010943312567 -0.0038045236859770076
H 5.39025629030527 0.2048024045578778 -2.442640309855977
H 4.109288739614851 2.0199311793796486 -1.7190205579780455