15

C 1.150140928037694 -0.051616328889803276 0.07050375059425205
C 2.6447743260595065 0.024802952826996277 0.04418533437615195
C 3.2634716957124845 1.2005600963500203 0.7910075218290327
N 4.516101741021564 0.6085790974706 1.2001564287396782
C 4.350151303590939 -0.7612303108127355 1.338206260329433
N 5.067971331019246 -1.633014076039993 1.9073169998964645
O 3.2030804763474126 -1.11751169237328 0.7107427025279891
H 0.7206264220561704 0.8152215936332077 -0.43881620563044493
H 0.7816267054330543 -0.07437568020966577 1.0974982386516483
H 0.7970038564785781 -0.9540530441306245 -0.4391664625594256
H 3.010731742930507 0.017043437851855418 -0.9937800174854312
H 2.631318975720742 1.5015071383466914 1.6352833642394806
H 3.409023160402114 2.0696867075956904 0.13952885477263616
H 5.0717630241541505 1.0658015770177407 1.90348935336014
H 5.879383966963169 -1.2117281125533395 2.345937723998719