14

C 1.0993749407720272 0.07532679448655925 0.2999432681743795
C 2.389196437708659 0.07828074639448401 -0.02127235459755222
C 3.2266279347025555 1.3288423511243819 -0.1834194263266161
N 4.521422230326772 0.810368543008379 -0.5288230498407489
C 4.6246920061305925 -0.544354723492664 -0.6220861479502765
O 5.622457488464203 -1.165725470618745 -0.9051444956870884
C 3.2532831647726765 -1.1125923347632425 -0.2978012987935597
H 0.5633319284850176 1.0074063573640728 0.47732504894737954
H 0.5481250130913677 -0.8420014896563568 0.4046341692316928
H 3.267216761658568 1.908751497469475 0.7534711697316588
H 2.8285904730055864 1.9856750229682958 -0.9610116782875723
H 5.328887627481814 1.3870925137969627 -0.712200075185239
H 3.3350914375164415 -1.7863270704174499 0.5559530502380344
H 2.90808243969521 -1.7166434885956259 -1.1403662147423193