13

C 1.0075138645934771 -0.06758572004718874 0.056785324902168734
C 2.485270067650528 0.0020737718754024366 0.06240574379914167
C 3.3229661835608577 1.058897835132172 0.06793535404873086
N 4.612366737119991 0.5727956734267347 0.07554884660474114
C 4.630361640252547 -0.8042090165715386 0.07485791721103785
O 5.581962350408804 -1.5552980485629755 0.0759461789866901
N 3.2867759935886967 -1.1268639012366044 0.0721797498814838
H 0.5808997361093371 0.9328488044328272 0.05683730915391291
H 0.6245335730568434 -0.5976323787226286 0.943312274317849
H 0.6305020007282169 -0.5962162705906581 -0.8237211228900898
H 3.0929407144880954 2.113375723472834 0.06883593722906092
H 5.460584015892423 1.1046870145508307 0.07266589649958076
H 2.9769840110344643 -2.079970565999175 0.06477993353859947