12

C 1.0046646455057755 0.005488805247203893 0.09532259174858734
C 2.4680344554572384 0.1404870723457998 0.10116382418755075
C 3.2978086216401534 1.1953398495206342 0.09422652992265579
N 4.588937744618587 0.6786167790487381 0.10186380307795304
C 4.54820595827006 -0.6856747007157669 0.10977327011385583
O 5.445172009549507 -1.482893939084821 0.10629038315839487
O 3.209701805649007 -1.008410714899677 0.10525772576928177
H 0.5349569900175964 0.989825357191933 0.09124947860698575
H 0.655053597650878 -0.5354007198450513 0.9720420601813176
H 0.659354089165096 -0.5358008946914958 -0.789188596549951
H 3.088399974263479 2.243696553916468 0.09397535599111699
H 5.453535354495648 1.186976391901006 0.1007204860253868