14

C 0.8676062811301904 0.04293295013570758 0.05149701143787486
C 2.3493866877341185 0.03376068890179173 0.0543805590730739
C 3.2057590642539706 1.1102155518185302 0.056077846741266923
N 4.490688848755129 0.6596181324771019 0.05631407538510328
C 4.496306099307732 -0.7138619187984722 0.05723970792705481
C 3.189197366041495 -1.1161537657492977 0.052611323632087086
O 2.6771659791714666 -2.373032072321401 0.05193534801836651
H 0.47815006166534585 1.0693207830020393 0.04691991612662721
H 0.46030851955755053 -0.4719986693325683 0.9196660623996727
H 0.46161369892689075 -0.47179866900116546 -0.8369361502832766
H 2.9824352337283515 2.1674758159598495 0.05645060034548542
H 5.309728742635176 1.2369326599359458 0.0659429508722476
H 5.410609795542893 -1.2787308724794435 0.06391410992675652
H 3.4027035032140103 -3.0063127934456637 0.05473810829464187