12

C 0.9912578023819701 -0.03330410846875281 -0.10232599630094233
C 2.4594275304315705 0.10043410369382176 -0.0998628653737042
C 3.292492807411435 1.1522443575529375 -0.09255773171186123
N 4.5824731401457175 0.6309515916868761 -0.09218554278800672
C 4.545492789148542 -0.7284950648004509 -0.09153474662249379
O 5.4380023492559 -1.5310135117866015 -0.08315250068360984
O 3.2103527330227957 -1.0506770716209037 -0.09155859778485678
H 0.5322918163514031 0.9521697840248122 -0.10147732324367881
H 0.6464983336010591 -0.575770124407473 0.7852188079627048
H 0.6520008207973906 -0.5787086440985033 -0.9836000883774808
H 3.077697097726446 2.204929812451225 -0.09578041994068281
H 5.446823527807849 1.142557480773429 -0.08842557421637638