13

C 0.9300395666731797 0.09013941578905649 -0.09244275870558034
C 2.4069267072803333 0.10033600784091924 -0.07458986279075833
C 3.2667201681049356 1.1560243751688544 -0.07958812865678246
N 4.549132851401557 0.7168560756262953 -0.06611621763856611
N 4.521227162020577 -0.6408958606846936 -0.06330539672362312
C 3.2185210051887805 -1.1131379640248507 -0.06791345111566455
O 2.9037433063949316 -2.2945648495368096 -0.06946313131879839
H 0.5235599853400817 1.1053019380500382 -0.10193223263359906
H 0.5265995238003505 -0.4333541717584812 0.7832869649253221
H 0.5410502016868073 -0.4370843679988674 -0.9650445471714165
H 3.0609476738767376 2.2134471979603987 -0.07820683238209118
H 5.407188279452207 1.231652012162131 -0.05302754124526567
H 5.362761874717992 -1.1987232406578594 -0.047365278794881206