11

C 1.1051571505322537 -0.0065375187989971505 -0.09545834207240814
C 2.412719249016838 -0.05463612187417206 0.11018911099401342
C 3.3222612387576054 -1.179732793934328 0.28508956399946145
N 4.5351369711400755 -0.7798622692352944 0.4725696281916872
N 4.533761999110417 0.5847970282257109 0.4404257924035522
C 3.2996950931834257 1.144254065539658 0.22878888444476964
O 3.033908583584995 2.3220946204701023 0.158842070333814
H 0.4961555717931273 -0.9036072621701609 -0.1722531927231922
H 0.6163490539561598 0.9502675916935531 -0.1949526907252459
H 3.0881562247118044 -2.228294878234616 0.2701569694554411
H 5.398417881154011 1.0812120457471313 0.5635305724355474