13

C 1.2052673956269933 0.019204144420359434 0.3351525255024704
C 2.4598266646277445 0.13740548840067474 -0.07977859813763082
C 3.3201956156930206 1.3346408507670198 -0.3076736943512451
N 4.700784379716712 0.8277553248318142 -0.35221237516303905
N 4.551115491234855 -0.5531183494962609 -0.614920697551534
C 3.2805700607610935 -1.0442373309159563 -0.5027508675563161
O 2.9294126305329056 -2.1781472817007783 -0.7252964344544416
H 0.6074568928347341 0.8778622525984506 0.6174595313909998
H 0.7453963201747155 -0.9608044911168523 0.39044997290528327
H 3.225743611949872 2.1079011707493107 0.4534226261001524
H 3.083806358978995 1.7900722168811547 -1.2806267441946486
H 5.087918938763749 0.8954058151547317 0.5942011007160004
H 5.254081123293346 -0.9997309005542301 -1.1804451369702065