13

C 0.8589972258238995 -0.10937822951661326 -0.07796097718134734
C 2.180293911548776 -0.03621447911600289 -0.07779622769220836
C 2.9266844355619397 1.2752219402736749 -0.08933451094964423
N 4.34616788158312 1.1023630936790487 -0.07468797941216886
N 4.974372706162959 -0.08094584240466604 -0.061047272090348596
C 4.268729672722337 -1.1371444798457901 -0.050573421724380466
O 2.902741306362133 -1.1905172357023122 -0.05528117695121053
H 0.267827252702329 0.7946538481763518 -0.09494329539177906
H 0.35504041586433643 -1.0649186892779279 -0.06720157953998802
H 2.5912317077792317 1.8567474578884418 0.7839559508671219
H 2.6056672387980058 1.836288653815103 -0.9728681257113687
H 4.958381857516731 1.8992474682402194 -0.0876452164056685
H 4.728272593036898 -2.115689105579083 -0.03917819783031553