13

C 1.0096430824980178 -0.059902862229172724 -0.07379345509193379
C 2.497807221883545 0.07616898616442175 -0.013587611158700403
C 3.2367257810485675 1.2537034195985373 -0.10391111558012428
N 4.509709088328133 0.8659630024591286 -0.0076316404749342225
O 5.578591426542424 1.7096788435945112 -0.04010454725470598
N 4.6994179803339975 -0.41256398686245227 0.12619571453423933
C 3.464402400038428 -0.9236713942622017 0.12311346594422559
H 0.5291130466892632 0.9129840451064055 -0.16036982324511712
H 0.6185365316591468 -0.5435515972416587 0.8261271771115697
H 0.6991731454135282 -0.668691708518673 -0.9282533028413414
H 2.9568835350036986 2.2813050801613413 -0.2162717072858094
H 6.325482582683312 1.1040268670033082 0.05711629839239594
H 3.328431473389736 -1.9937117163795293 0.2203972468914212