14

C 0.9811524044063993 -0.22391876071095024 -0.00034008810057150403
C 2.4460442051844358 -0.03004023074605363 -0.003062802293814473
C 3.2510328132033584 1.071666817741514 -0.0009083054157153136
C 2.8758760068102562 2.5113969031759393 0.0064580632458546
C 4.556119722940625 0.512027509436668 -0.005327146409162911
N 4.536530554045677 -0.7853890216016662 -0.013619093340216742
O 3.202169512710095 -1.1353048002662791 -0.013874323716048666
H 0.47292021464162903 0.7344934557184377 0.007057230985506026
H 0.6716889621167331 -0.7948697602729049 0.880911362524232
H 0.6697142307675401 -0.7836813119443115 -0.8808430973745559
H 1.7901466029231043 2.639193297166211 0.007385784256475685
H 3.2591499161794704 3.0300782369938726 -0.8680479329605039
H 3.2727191677065557 3.022099679104764 0.8930658951704883
H 5.505601692067953 1.0204272143659794 -0.011548223494368903