12

C 0.9143846502557552 0.0545373051405145 -0.03562268890660506
C 2.3956806728198505 0.09584267555429445 -0.03434214828949296
C 3.229187899879714 1.1790696910126546 -0.0365110170646485
O 3.022783505548152 2.4926064711273774 -0.03826831342505874
O 4.502746408433508 0.8254747086978669 -0.03680319635719226
N 4.5803524276759715 -0.5545607710382388 -0.03423460232356573
C 3.343821362170093 -0.9656221867038569 -0.04410898289713235
H 0.48115996321321375 1.0568118456271807 -0.0412348851890087
H 0.5196550229937323 -0.46177482373280976 0.8443848747378768
H 0.527181452911484 -0.45864727322150894 -0.9182089275191613
H 2.0791844431360196 2.668835388655382 -0.033967254432366305
H 3.1397664545566633 -2.0294478332138994 -0.04410436274621545