10

C 0.9158328490203956 -0.010529432628783659 -0.08755901183623709
C 2.24338757204028 -0.063992962898452 0.032600951002929535
C 3.152339125790492 -1.1728156845057782 0.1762635716424644
N 4.372617249968765 -0.7889942232945782 0.24545809226694162
O 4.414002749889463 0.6068906097194467 0.1737567241112438
C 3.14305564869481 1.1093875363261734 0.034407570151886245
O 2.9166083236567104 2.2756218991998507 -0.05768198206914647
H 0.29505591898271033 -0.9053018577674411 -0.08395721043892217
H 0.42710486878535525 0.9539104563868024 -0.18019152633115432
H 2.921896757533049 -2.2336052214383453 0.21921607645523222