14

C 1.0018105369436376 -0.014095420235433781 0.2615063249229496
C 2.484614858720588 0.09161647778197822 0.01219927143500677
C 3.25391316717161 1.215643929375773 0.7414420543833132
N 4.0935290354226215 0.16442997083279556 1.2957469460156255
O 4.86625092645913 0.2490721522126783 2.4231803739125204
C 3.347305601031282 -0.8909474447992468 0.8417319639211489
O 3.359103602416388 -2.064248035793243 1.0505397202172728
H 0.448006021420758 0.7753048573715638 -0.24262891586043042
H 0.7742928224024983 0.04164703911882756 1.327306235581325
H 0.6246776252702995 -0.9712417055083525 -0.10555821535374618
H 2.721503162506776 0.040210745136003125 -1.0464805645993327
H 2.6558626256248665 1.7312936587251606 1.4979652025341414
H 3.7921682426105248 1.9441957617665513 0.126675630953368
H 5.786321857429493 0.17392572646255272 2.119615000325872