16

C 1.0252901132434664 0.14526689948669705 -0.2650419101079066
C 2.4294140852913295 -0.26678837623673457 0.06384580752773873
C 3.2323795005306533 -0.9894825745680603 -0.923401225734778
O 3.447941115913414 0.3946956804155836 -0.6854380461804614
C 2.731179495511723 -0.414655346624616 1.5271583288513733
C 4.1017808319353115 -0.3154623352583342 2.0337894180259943
N 3.145548334096988 0.7614605884584882 2.2831957016420135
H 0.9029990962183132 0.2802715502984756 -1.343746139342607
H 0.7849486526387732 1.097436380120999 0.2235786873176333
H 0.30797009586594426 -0.6073982307968687 0.08573123517741454
H 2.8001151658594274 -1.2230088644140908 -1.8953668798412069
H 4.033943027659331 -1.6512962239650053 -0.584768278001777
H 2.026870118190062 -1.0491623021932674 2.0540155809669134
H 4.889318497467571 -0.12739714473107652 1.3037661920758559
H 4.394813589577239 -0.8907633423854081 2.8998572792737014
H 3.3293879096385313 1.5187747641106364 1.6383142101403603