18

C 0.5317823008640721 -0.023752917745983242 -0.5841936870573179
C 1.8574789757324206 0.5452819657450514 -0.14369745386422605
C 3.1415299471882676 -0.17422196916831537 -0.41518619285075636
O 3.0380795574517863 -1.3736897808744777 -1.1197276444335944
C 2.858990191529746 1.1402923847996358 -1.0977120713367527
C 2.573990098043919 1.155031826845691 -2.574927230111225
N 3.592444094351071 2.254451534428424 -0.5613814190936283
H 0.0877185214827644 -0.6183518513783566 0.21112439936286434
H 0.6427213321430069 -0.6712703975223003 -1.4623956678654513
H -0.16952841413555889 0.7746682624339695 -0.8410138740809473
H 1.828841521761739 1.0485520795418148 0.8177405838323543
H 3.8973729229859275 -0.15247108784216076 0.3656612406441914
H 3.8418658074636673 -1.4817306818540765 -1.632963546832558
H 2.1103628426918712 0.2272393942046763 -2.919396642268514
H 3.5021214575719677 1.284649163650943 -3.142404630168304
H 1.9099084634732622 1.981835245552691 -2.8388703694040966
H 4.457292491433584 2.4008397407054605 -1.0735595104999225
H 3.0479796296145456 3.1104226439249083 -0.6284038235127638