14

C 0.923700760818624 0.12641657365149878 0.0022292436080073794
C 2.414303665636724 0.1074349832036481 -0.016620508184719884
C 3.2761018163558604 1.1532987111760706 -0.07479335889920873
O 4.556128304269428 0.7408284751835356 -0.060100658237704156
C 4.534440693101959 -0.6226115689321977 -0.012446712611967134
C 3.250187458890021 -1.059972588304695 0.02354296947957199
N 2.7667286294170474 -2.3637582908932453 0.1593433640167268
H 0.5493423153373735 1.1571834688586127 0.014380545702526087
H 0.5420303914629764 -0.38484210957402554 0.8862337053029343
H 0.4970545441531271 -0.35883311891156794 -0.8702506732400799
H 3.111066272855458 2.2155843705577487 -0.10889340558363964
H 5.483205423605544 -1.1141735101035517 0.012031517350889644
H 3.4589202005687762 -3.0732223707520614 -0.034969450665277554
H 1.9321538458457626 -2.5388017611644633 -0.37561312333638686