18

C 1.0600364902689994 0.10714371226310251 -0.28791834203928524
C 2.5439928518493997 0.1120102271130934 -0.005463293232748579
C 3.0009037470325524 1.1504232656572706 1.0098823404569939
O 4.24388896836424 0.6917468642454727 1.5182706145614542
C 4.406704969249957 -0.684137243443037 1.2141781592348255
C 3.088606585482712 -1.1729905276198125 0.6350410371831782
N 3.2719799769427667 -2.343145924729453 -0.20053040191177693
H 0.7259613098769728 1.052353643123128 -0.7325751175594502
H 0.4894700191619506 -0.05443978946341237 0.6253116401654165
H 0.7948916765428276 -0.684468729683914 -0.9943953989247617
H 3.0947238027752593 0.2759010045307215 -0.94015078781824
H 2.264977212261081 1.2326721768455997 1.8217085176453842
H 3.1400602327943448 2.149560040026309 0.5761303510909239
H 4.691755196318042 -1.2191371237566593 2.122253363155573
H 5.212805137259129 -0.8081790934634357 0.47878683498341534
H 2.4205102331730752 -1.4458349513040618 1.4546576358917507
H 3.8155891537777156 -2.114505958415071 -1.0154771318940403
H 2.3735134866402836 -2.703043450157535 -0.5147029429497554