18

C 1.0446082891762467 -0.008195625550686215 0.15065934153526878
C 2.5607566754293765 0.000845438230689278 -0.030906060601369842
C 3.088426922992122 -1.3679332986385482 -0.44062836172785314
O 2.7172223469840957 -1.6959233151698312 -1.755061219372299
C 3.2259245427603003 -0.7588352152818182 -2.671268251191944
C 2.7164606404222433 0.6306892228188538 -2.370729202821882
N 3.064710857568246 0.9675031515318961 -0.9957062425908733
H 0.7508265263570593 -0.6780462336639466 0.9635488890018854
H 0.5363934510881586 -0.3405426284883503 -0.7594140795784323
H 0.6802163793364202 0.9925101902746727 0.3948066553759712
H 3.0163058460693017 0.23937977458329768 0.9382007600171955
H 2.6808102579428055 -2.154490648553763 0.20584196546574346
H 4.181003946648854 -1.3676531425631666 -0.35007234235454626
H 2.9209862718173545 -1.0768676490509046 -3.670064384870286
H 4.326951432805613 -0.7525419290995191 -2.627676878640057
H 1.6308323867304828 0.6586113186071392 -2.567590003232069
H 3.186334379950489 1.352255784427957 -3.0329644425255586
H 2.7341854487502157 1.8939140453623327 -0.7620026275695609