18

C 1.165576792417795 -0.055921558170925804 0.3645916976539928
C 2.606774287798817 0.19587152904454175 -0.023335173680135886
C 2.769817886986373 0.257257027350758 -1.538806983348002
O 4.115683240908185 0.2992645910052637 -1.913735175328692
C 3.287693596877129 1.320918462919018 0.7811296974687743
C 3.9422389353955802 0.21420591961476473 1.6131934673009898
N 3.5816933349292577 -0.7534277246499773 0.5617226935357698
H 0.5172841899418013 0.7271128680623204 -0.021848656153486825
H 1.0508857883690401 -0.07775647961181062 1.4476035119027064
H 0.8187377488071766 -1.0131570264043497 -0.033627437771628486
H 2.2841490556063597 1.162381034345318 -1.930185691917162
H 2.2536097932559462 -0.6038887163672724 -1.988117808986664
H 4.545407667799583 -0.3159003979460109 -1.2836790343058313
H 2.6251059607867835 2.0110095560354444 1.3013123010495717
H 4.004136835452251 1.8844566449652802 0.17624537795122822
H 3.439450925491946 0.04792891485050587 2.569834777612912
H 5.0204993729696925 0.2912972011881945 1.7990624016917351
H 3.199301645187089 -1.6352484725106253 0.8824257021504612