18

C 0.950136408990223 -0.10446211738831407 -0.11955814679842784
C 2.4453050984752482 -0.004577962512315105 -0.007130384567624144
C 3.1081567885822685 1.0642105861208904 0.8991298410385861
O 2.3366525710149584 1.4854329388536789 1.9858411620847496
C 4.120160447054522 -0.038021259265811576 1.228838285851355
N 3.12672802099197 -1.0266891622164895 0.7928066164250315
C 3.5742428276401896 -2.22626001738216 0.15010492707119108
H 0.5442399985852556 0.7285625773933584 -0.7047467247648445
H 0.48440448586843965 -0.0748354634788136 0.8660938319338869
H 0.6551633269653556 -1.0345891525710125 -0.6070894082533863
H 2.8923903997816165 0.06927698064640195 -1.018108740470738
H 3.475775855492644 1.9613774978335419 0.41015074340518376
H 2.042686973395075 0.6985866820841995 2.457501297445319
H 4.461757920602386 -0.12416386132903277 2.262365656639294
H 5.00558776464715 0.008891650629986994 0.5554630593144171
H 4.132263066372478 -2.8470825885293745 0.8619980406571071
H 4.236923778045834 -2.0238540946648715 -0.7153732530788806
H 2.7251012650620905 -2.8115280887317775 -0.19924041633084255