15

C 1.0054740500928414 -0.043268448317045724 -0.3236842847318643
C 2.4427475180558256 0.13695517266393809 0.14413870520249286
C 3.098076504239155 1.3742785736681604 -0.44310211771485214
O 3.2748375567378116 1.2332346896344195 -1.8407385087433055
C 3.6006895825318352 -0.023103935615647293 -2.247203254456534
N 3.61985247687963 -1.079159190414343 -1.5498774288354245
N 3.3250379678739446 -0.9640194657408189 -0.20629542540834878
H 0.394575876563848 0.8164248400209277 -0.04466519418887161
H 0.5605898151933274 -0.933196854306429 0.12396155259466063
H 0.9547059057808133 -0.1511291934881074 -1.4127114321774785
H 2.4572863554974873 0.23449632864606348 1.2404229679349057
H 4.064279040014355 1.5534510121333123 0.03253975783706332
H 2.4694533054274643 2.2673661978005333 -0.3024620091307413
H 3.8502270765688738 -0.07078506182484315 -3.2928257433507233
H 2.9970968213054605 -1.8597451403708118 0.12280709386010737