15

C 1.0221824537999775 0.07818759902634202 0.03641452130836253
C 2.5284011469616208 0.047225234011854716 0.1252224247075217
C 3.1305668829329245 1.1806436531730002 0.9459764478546014
O 4.319140383749389 0.6334438341429686 1.4962686175252404
C 4.231364290603422 -0.7264502588719643 1.483991158603586
N 5.0816377212140305 -1.5310921323347784 1.9361459788362836
N 3.0419819068101352 -1.0679333014673862 0.8869083782679643
H 0.6864235682288196 0.9831310995487021 -0.4741980091141352
H 0.5732927852161978 0.05650628414381525 1.0262291975039104
H 0.6420756438460506 -0.7721852303510727 -0.5321021195320527
H 2.959048804121207 0.06414440559975719 -0.8886742497454484
H 2.4585885357701485 1.4723615174531584 1.758872654841547
H 3.385531355840166 2.059401730736707 0.35541838566333245
H 5.860559377108036 -1.0350954255974456 2.3710513760319896
H 2.9966867116854874 -2.004759645694835 0.5141648294412956