14

C 1.1056538471990967 -0.251513831984854 -0.28495313801848504
C 2.5194575023530725 0.00023609436684618283 0.19660898130541463
C 3.1549701289757257 1.2345589760196327 -0.4184044145521196
O 3.3189943493736043 1.030661795502987 -1.8112967948200098
C 3.7049977375569796 -0.2088796690303911 -2.130127809493294
N 3.7673408366977807 -1.2467207440848997 -1.386919917050077
O 3.362253357604691 -1.1145862364940677 -0.06522610038065671
H 0.45140691341072237 0.579815781795954 0.008274839919555708
H 0.7200201799967982 -1.1705679691265463 0.15237153097775996
H 1.0650515592911576 -0.3412030809052103 -1.3737252878545723
H 2.5279303411048977 0.0975081656826427 1.2866586341047734
H 4.131155687864143 1.4222419530956854 0.042871390233180456
H 2.5305321049434752 2.1205712708677558 -0.30281657632328535
H 3.9978864479773772 -0.32874454885375975 -3.1612447863146595