16

C 1.049287162592133 -0.018467242755951623 -0.21069088650052567
C 2.538223320768807 -0.11630389964930955 0.041354649900441166
C 2.973233234451976 -1.3448127054306909 0.8383249360531867
O 4.014329467957792 -0.8879034863859444 1.698393647342119
N 3.9248371874396653 0.48857267540568494 1.8060604121805044
C 3.1279658453257118 0.9513661856382488 0.9341807134289459
C 2.8715880751842504 2.398549850366224 0.7951877995069203
H 0.6933915754604913 -0.8660020608908902 -0.8137140460427615
H 0.7951478159606925 0.8940047144273036 -0.7519322265973221
H 0.4968740770809262 -0.032312940107063134 0.7327290997029873
H 3.0623337405925546 -0.0680760901083993 -0.9231725338093886
H 3.372623436534211 -2.1646510949998743 0.23380847324122114
H 2.1421342852013985 -1.7098322431463222 1.453649658836292
H 3.462398735236464 2.9576691921408704 1.5258445316848628
H 1.8129121521743587 2.6341302299624765 0.9434585947697804
H 3.1356880336535826 2.7482129672765345 -0.20805706462039375