13

C 0.8372287396799144 0.07473766432303815 0.08093049776712721
C 2.316320979557253 0.050158712370448645 0.07176619060391085
C 3.2120726114316054 1.068716585518502 0.02115196530330618
O 4.458740148777729 0.6257974109895461 0.04692744514449458
N 4.443193728596216 -0.7495597589579099 0.08431918046292215
C 3.183915068148595 -1.090618828819265 0.11591503677890386
N 2.7844912785956106 -2.394892636632854 0.24541384265500835
H 0.4556792747344145 1.0922461565473496 0.09640286689830796
H 0.44394398504398813 -0.4411580600803261 0.9704411284236948
H 0.4138636902798124 -0.41980012273904765 -0.7933611611631995
H 3.0819928727179553 2.141023080761049 -0.012292991696983861
H 3.528370323728875 -3.064093519254049 0.08316135965575014
H 1.9397127757360642 -2.634894880193516 -0.2553502407602999