13

C 1.0644098932066628 0.027546814028522822 0.16044064047622247
C 2.3696442199896146 0.0802472921360299 -0.038819930610762714
C 3.273542566048041 1.2814585427961007 -0.09761401439463405
O 4.589768001900776 0.7903744773220143 -0.3399633984091999
N 4.473552396591031 -0.6047543602260381 -0.41290215427909194
C 3.2301461933697597 -1.104306609192176 -0.2561963238157489
N 2.8096886414232345 -2.309239616935204 -0.25969881301566056
H 0.47124350376512336 0.9220196699342281 0.30618743313903596
H 0.5741112891807161 -0.9424463524318513 0.1720124023314479
H 3.2863518617290235 1.8406279190006687 0.8416201528539594
H 3.0021305378691125 1.9634301126016633 -0.9201117522927464
H 5.343024641260665 -1.0710060898957192 -0.5799429556999156
H 3.567697420095214 -2.983429461665588 -0.4273378190677044