14

C 1.0440879199694864 0.04572702585316347 0.027919222656779125
C 2.56103543980469 0.08214513076892349 0.07195168512200692
C 3.191870113197936 1.1703265749744838 0.9222387790587699
O 4.451161876123945 0.6257554869121756 1.337134684649239
N 4.139657047335918 -0.7275238834313809 1.5583886228308872
C 3.174714984826805 -1.169368517287587 0.6874889685922788
O 2.8668614958438785 -2.3226950344112454 0.5027642153071232
H 0.6443902892528576 0.9158442686059312 -0.4972916954500064
H 0.6296406434148591 0.03883624692534244 1.0437231337122725
H 0.7053846756209783 -0.8565939220721731 -0.48158080336266434
H 2.961374889238883 0.13542717232440765 -0.9446177800172709
H 2.5695999338661863 1.3678794070455815 1.8142270301336774
H 3.402534764400562 2.102283752740266 0.41072645599708546
H 4.971408996089951 -1.26856029842375 1.72773165817528