16

C 0.9222237968492082 0.06493206869491296 0.3839490041204346
C 2.3632780239676827 -0.01547575435157 -0.06637848032698304
C 2.7411364545562438 1.1727803210332686 -0.9387043526091173
O 4.10795788103343 1.1542082852265574 -1.3106949017649383
N 4.589380417910304 -0.018922935194081916 -1.8567777555494165
C 3.908312705194607 -1.0771040160260759 -1.6875371159212642
C 2.660934792997336 -1.261893844907832 -0.8870474966047415
H 0.7415964949578167 0.9437278802133473 1.0026908738387446
H 0.653786079996978 -0.8191310619444734 0.9836872519154618
H 0.23619814435712178 0.10444051658964633 -0.4676332365306142
H 3.0252599019868796 0.004213225264050065 0.7990595018887322
H 2.603178656642832 2.1208178814519267 -0.4198593836836074
H 2.127772615694992 1.1737094854561274 -1.8470894480006927
H 4.355896455862441 -1.9515355275023378 -2.166730750037581
H 2.772224384094488 -2.1370017016454885 -0.25191313460822545
H 1.822993990836564 -1.478784758890994 -1.566357733648353