12

C 0.9508346277831811 -0.17296568919744384 -0.05661242136014844
C 2.2767251180374206 -0.12510618841974314 -0.061530904719990814
C 3.056257602275356 1.1627875226262683 -0.08720297296981493
O 4.474389742106978 1.0466376959515875 -0.08570256776353602
N 5.067806773235664 -0.1906415426472513 -0.0677237130403571
C 4.32223824106892 -1.218056581911529 -0.04025013907526652
O 2.9769910046089443 -1.2939497981108599 -0.04671041547526377
H 0.38260611313778503 0.7409325894454989 -0.077256028785105
H 0.426931549436898 -1.1203783253455535 -0.04383128341053258
H 2.7843096176133706 1.7509761519357194 0.7893567506116244
H 2.7807388022163972 1.7245678925312662 -0.9842322176715711
H 4.8009723442934735 -2.1922718775661636 -0.030071651366919715