14

C 0.902430987513219 -0.1049852993286516 0.23950535012382645
C 2.3664166104262816 -0.1284214427439443 -0.11267478195795076
C 2.851674033504534 1.1102169792872234 -0.8188389571040553
O 4.216828306317253 0.980544771142451 -1.1619573884846186
N 4.497360859233844 -0.1765414888953158 -1.8818651138334452
C 3.68380076742802 -1.1426376180884825 -1.7446069685281638
O 2.587055954975812 -1.2475613754423889 -0.9817765055085643
H 0.6986948926694305 0.6937122590625349 0.9639973020853992
H 0.5960037850715392 -1.0579943075260503 0.6780610366009113
H 0.29295862489069774 0.07544448374950705 -0.6482272979346578
H 2.9794466578311005 -0.28941228397058 0.7892448615343589
H 2.7875340088543434 1.9911626037586936 -0.1843232577238558
H 2.252387626886834 1.2763655905091669 -1.729021646961602
H 3.886825126123951 -2.043769784386196 -2.321903189470547