18

C 0.9965055143322572 -0.23480388054038467 -0.0008300814577377018
C 2.4748415095710055 -0.4604174262682487 -0.1612899469477196
N 3.007317278734537 -1.0633154950547448 -1.3938472701106164
C 3.3333113805535075 0.3272819279849583 -1.0654281157664673
C 2.8070851917711943 1.4477227703329634 -1.9071622448595689
C 4.803798427108465 0.4844616432498181 -0.706659313430464
O 5.335836189975838 -0.6729934457592772 -0.121960865888634
H 0.5045515434599881 -1.1692986704741826 0.2735589660155443
H 0.5254115862514251 0.13797259647538215 -0.9105316472518517
H 0.8035931553697153 0.48388294309797875 0.8002933261556635
H 2.958112132417672 -0.8494656969369119 0.7298949771965739
H 2.2912322413038817 -1.1050475147016692 -2.1112572103522327
H 1.7486612061150377 1.3267677560961137 -2.1533618679086355
H 3.354411919450611 1.5066659634665411 -2.855719106769856
H 2.921212591170618 2.404373014524113 -1.3994777628736534
H 4.929930475540323 1.308369179696254 0.007761959919736852
H 5.35904568052779 0.7595709398058091 -1.6195198270629894
H 4.930525007937183 -1.4010076286020352 -0.6034895401148506