16

C 0.8055009465634075 0.20356782776450055 -0.3397029896281299
C 2.2689542811288548 0.2062352948377182 -0.03262887875109978
N 3.1449184245679187 -0.8369827117256433 -0.5770241326646555
C 3.2558450591914605 0.532816829750751 -1.071313665108134
C 4.539504313797141 1.2402127680910215 -0.7583317370265843
C 4.474089424233789 2.7394055464846825 -0.8559550506658727
O 3.4984476785441543 3.3647883853422287 -1.1753910952152202
H 0.27819199382001497 -0.529033121223166 0.28247741433424817
H 0.6195512989140569 -0.04136358906079028 -1.3885191138771662
H 0.37072102042082455 1.191009364559409 -0.1370220258520916
H 2.5258478992901052 0.4762570736925596 0.9910959663041221
H 2.626761131764289 -1.4036357929351762 -1.2333967122116192
H 2.8423652476966317 0.7534276464206924 -2.0594164826625727
H 5.346828615618769 0.9135976616687427 -1.4289230908283732
H 4.8943392044671 0.975223047105528 0.23953252702825445
H 5.419362199856169 3.2603080001347156 -0.6045900812529339