14

C 0.975249177307263 0.06499229571564909 -0.14367504692894575
C 2.453343769531543 0.010667839695909601 0.08112798075097549
N 3.2758607442705028 -0.9791097529528585 -0.5756758186571108
C 3.3896205087859905 0.41896505313706756 -0.9929728004240786
C 4.654651569297447 1.104799862238389 -0.6379869272987805
O 5.002369809202266 2.002656958382819 -1.574364597845856
O 5.28751643141575 0.9257363570626976 0.36577379377966085
H 0.4702103434826738 -0.7046158936850391 0.45571820986273975
H 0.7219056844223266 -0.10772264150136249 -1.1918091654609617
H 0.5676881183618354 1.0328541647391813 0.14859940662134352
H 2.793954069323417 0.21995815002146887 1.0905084794478521
H 2.730469918342509 -1.488671117990658 -1.2650358033608096
H 2.955564745294072 0.7063676098156724 -1.9462905213190158
H 5.81380064002197 2.426809000403244 -1.2529576163320393