18

C 0.9429539943168228 -0.13162285135377094 -0.6678987226233669
C 2.2546324566794125 0.43135610086852794 -0.18012956199060634
N 2.233191342838643 1.0623498492297163 1.1194887531519813
C 3.545559885823773 -0.27257245537976343 -0.5119271582429635
C 3.2615612319950475 1.0709806012446617 -1.1188995699341375
C 3.0239938759949405 1.2257001615720313 -2.5918336292579727
O 3.9442133292042683 2.1696115093926296 -0.6104010044702988
H 0.5923261805839192 -0.9129619455616215 0.010504431570791735
H 1.0325826261886464 -0.5806229524826266 -1.66006014715741
H 0.1793995325112625 0.6499675508525312 -0.724606099838333
H 2.2247863611779892 0.3844458882483983 1.8612789314704616
H 1.4169864590988743 1.6499770489022232 1.2170936136105062
H 3.4890353390425015 -1.1597634226438376 -1.1342650100245226
H 4.303155128453989 -0.29880337524697215 0.2618754857939124
H 2.5469935670560657 0.34566776843561775 -3.0161382262347622
H 3.9808166857527496 1.3623752630069794 -3.095752455989228
H 2.398570546012619 2.0994627062798323 -2.7900276250187623
H 3.692631124676615 2.1970533587752032 0.3276181888228342