18

C 1.0274019789042557 0.0969193700914247 -0.002948775886064965
C 2.535052387313297 0.014744587668814141 0.03560574733823689
N 3.247954798307271 1.0731894595650096 0.7997247268236558
C 4.199663984202385 0.06045706536161794 1.2940429807232303
C 3.268663554025299 -1.0812578079648338 0.8467288868649938
C 2.4756249804121926 -1.6845926586222206 1.9867707757069883
O 3.8155072357749145 -2.1594502528319506 0.1271021657661759
H 0.71722587267831 1.0196443381855187 -0.5079738019993721
H 0.5930929011792156 0.10100972041069545 0.9990681314878217
H 0.6104922356491451 -0.7475428325608304 -0.5543287545967741
H 2.92277084637542 0.010237297698538088 -0.9865151411437747
H 2.6665756703877714 1.397135352516665 1.5538950671125926
H 4.447777784393494 0.11225713840219798 2.3631329028997623
H 5.130127451933339 0.07993534204097563 0.7222822921770589
H 2.0371177353826115 -0.9098252065283537 2.611648456622748
H 3.131041748666342 -2.2958688926001334 2.6047014462493
H 1.6774178767165524 -2.31551196235764 1.6049161783631973
H 4.328993435268906 -1.8036910712123926 -0.6013999797992943