12

C 0.96625379856329 0.16881111447793087 0.0009224530421673856
C 2.4373294335411377 0.13395987871941034 0.0032119153779620853
N 3.2057141932624704 1.1460107831088402 -9.595225720970932e-05
C 4.561311587741564 0.6328390205293768 0.00351992738462359
C 4.65016961238619 -0.6926554144471091 -0.00016203262624530593
C 3.252871943012868 -1.171851677340062 -0.003782679793793709
O 2.8038916711739166 -2.283048109493919 -0.004680530320297052
H 0.6003890571193357 1.2010761668351577 -0.003302814714419301
H 0.573175772015374 -0.35530146405581275 0.8695978318723286
H 0.573340404211793 -0.36131475755048686 -0.8722856371399219
H 5.366272905719925 1.3552126201490022 0.004891180638628033
H 5.529128615507646 -1.320673703926185 0.004805491042142443