16

C 1.1597196422994154 0.12722241551206537 0.4646543352119801
C 2.5848314122811926 -0.01159132597731814 -0.06367253467371939
N 3.520162084122218 1.03133381354427 0.3248787563669275
C 4.137473723658735 0.6513440463040738 1.5834906264990443
C 4.392898088983919 -0.8370638958191823 1.3915863302325449
C 3.2332697985638394 -1.2728576033620078 0.5192007241829995
O 2.852291576127185 -2.38981584183219 0.32589024983108805
H 0.6889856495804402 1.0110125321009051 0.03243527008711047
H 1.1491609826236744 0.23134482224350253 1.555424428278048
H 0.5634657395297537 -0.7452815606191645 0.19359248647546057
H 2.5500628894714255 -0.12189314595894091 -1.1512804726155845
H 3.083448570689937 1.9414584792122513 0.3589265583655699
H 3.4830373259353133 0.8053137707387201 2.46727958927479
H 5.055783821580344 1.2262902044586426 1.7476002610213748
H 4.443142186750028 -1.4300698455123346 2.2961638891626963
H 5.304733616960526 -1.0031978698174318 0.8128979306055197