13

C 0.9923407595393188 -0.016411749646474898 -0.06220516254596942
C 2.4650368810097456 0.053339390595579454 -0.07673680623823442
N 3.2046642510483014 1.132495206576277 0.01557777487078509
C 4.513272821696057 0.7220366014994266 -0.05625555180256826
C 4.574855996458439 -0.6348230050699522 -0.21263907698964088
N 3.2653626024092457 -1.0299707041920292 -0.21052717274352487
O 2.835646288927808 -2.306296945885715 -0.4153741655303808
H 0.59517198136063 0.9932491414072049 -0.04326343213002466
H 0.61550719916956 -0.5462914418943967 0.8195653661453172
H 0.6036298938623803 -0.5328291659921752 -0.9442326519558027
H 5.329359953377329 1.4164964095446284 -0.0059444742664046864
H 5.38201086749636 -1.3376109981039979 -0.32245872578422397
H 2.7828102543680915 -2.719813364717795 0.4526764368699409