13

C 0.9934964754478962 0.026222099953427475 -0.040367404381214306
C 2.4586776672701136 0.17065669642246475 -0.04384386043755235
N 3.1759843867749185 1.233680671326736 -0.04931771514671775
C 4.486830002682077 0.794775719580791 -0.04908261518965219
C 4.494176971234167 -0.5527980197118579 -0.05006227063773106
N 5.438950264112066 -1.5299779168786514 -0.04844629545949652
O 3.2099463564382846 -0.9759165187560496 -0.044822532378360355
H 0.5479974150431753 1.0129908717213483 -0.04087685034519151
H 0.6436878354013852 -0.5242634984489095 0.8495336758496548
H 0.6448680034256113 -0.518655507609761 -0.9220924010100878
H 5.326569737925306 1.48426184815815 -0.04793836097806771
H 6.411723041577644 -1.287278951637247 -0.05524880219608175
H 5.174626673628249 -2.4982973947054834 -0.04558500076092195