13

C 0.9446368797330315 0.08707476067727532 -0.012658573477275043
C 2.4273505845010312 0.11725801585958275 -0.015516257267818991
N 3.173818872593886 1.1845963486258169 -0.018895459720815702
C 4.479887311408111 0.757617834524238 -0.023691071013747938
C 4.505358191033454 -0.6091423626815915 -0.029465358957145596
O 5.466458286298087 -1.5523561822386278 -0.029875118303616117
N 3.2017132659681677 -1.009612941762177 -0.02355667041736655
H 0.5872380644963646 1.110286682362135 -0.019110550499426733
H 0.5473092408776634 -0.41594911168982895 0.8700903216924614
H 0.5411728063342391 -0.4235953458791587 -0.892049152470879
H 5.312828672124386 1.4416054115161798 -0.02930988961189178
H 6.319962943403234 -1.121194911365598 -0.03101832994012603
H 2.8878886715127523 -1.9650580640839381 -0.019452481681885018