11

C 1.0617869069632886 -0.003998915142504424 0.020112425734798295
C 2.5389165210665445 -0.006383257801587569 0.017319067217324
N 3.3074420310575343 1.0083649494098115 0.022904936835553367
C 4.625804387333886 0.4279973889144476 0.015191841152009408
N 4.744341194119653 -0.8410334909186339 0.014616303533923796
C 3.3927233516624784 -1.2909448311772098 0.020315461652024042
O 3.014867092975223 -2.4144395344135523 0.01310849354063663
H 0.6834807083816813 1.0111141799529422 0.021956019698702617
H 0.6931171054725697 -0.5482303833917824 0.889126127532169
H 0.6958601616402011 -0.5412825558018949 -0.8591804991617342
H 5.479561082487587 1.1092025782514043 0.01750950568395302