17

C 0.8406897159379015 0.12299606355392005 -0.1974812322879694
C 2.3337107848428715 0.04598888492924981 -0.10380308117339955
N 2.9290486991737184 0.13976805287110555 1.2065644719141277
C 3.126368262416292 -0.8210914640916223 -1.079431105277114
N 2.5201819780382984 -1.5816600541008012 -2.1104364209478113
C 3.212838629512256 0.6770916824621694 -1.162262807842798
O 4.350560180661099 1.341814932983987 -0.777432186918329
H 0.3723479423958803 -0.6986939348828319 0.3486927287855186
H 0.502412717976435 0.06503483485641318 -1.2343160454545956
H 0.46966887261862417 1.0614488615537112 0.22736098099127508
H 2.8669902781949133 -0.7347509885168721 1.7196317338945304
H 2.4869977140661534 0.8628189619261989 1.7624428758001032
H 4.004731491611596 -1.2779691275121179 -0.631963457868359
H 2.191479166474596 -1.014995603642282 -2.8814632763271217
H 1.7556066753410968 -2.1630542695293307 -1.7907427573656747
H 2.7084895329950545 1.1506238513075755 -2.00652251019081
H 4.453852416158578 1.1307171428725145 0.16454400714767392