15

C 0.9845529705547582 -0.0181509164884658 0.14082359113662132
C 2.475580596656206 0.040193126100528706 -0.15422688985805935
N 2.825902731101831 0.0302480934958571 -1.5503221909789646
C 3.2650207306285766 1.066584328929734 0.7055308635777173
N 3.8931491892792365 -0.06920711221012396 1.3783860497164755
C 3.301451838500453 -1.0232608696706054 0.6157163661856904
O 3.393020779032694 -2.2172401063930263 0.5501812453773304
H 0.47562916720488957 0.8352355002262772 -0.3097869609723283
H 0.7845715114361056 -0.006472044202748994 1.215698953934934
H 0.5597360432881843 -0.9374839174369931 -0.2753440040177407
H 2.169214173739826 0.5666669186092885 -2.105564551517401
H 2.8184581894096614 -0.9266936125291798 -1.898177503488888
H 2.6693845351821075 1.6945065150797467 1.3669659321753422
H 3.9593872001923125 1.671472228568941 0.11486618558669079
H 4.630676965116178 -0.13371111509050082 2.050088893295277