13

C 0.946927776820831 0.0021301995560281716 -0.16830965423602542
C 2.4659925671279197 -0.0036317303978866513 -0.030855005983743498
N 3.0748711008182306 -1.2170693423353829 -0.5658219506553254
C 3.913359651439897 -0.8434404511623012 -1.4359898048014976
N 4.014005365197259 0.5239238609121954 -1.6204975651154494
C 3.115019222239776 1.1523072215532624 -0.7755544395193721
O 2.921678372427901 2.3406489572685434 -0.6929054375935259
H 0.5272017618124536 -0.8152278679114983 0.4087533889833757
H 0.6523106311783134 -0.11468455520681926 -1.207703562959974
H 0.5543201758676117 0.944341632267427 0.19997842874771768
H 2.7318117880310275 0.08884734124380782 1.0226389859751799
H 4.534130875013357 -1.5162560975158978 -2.019636744543691
H 4.610503914023708 1.0081310960154866 -2.273427450522705