13

C 1.0588471156108006 -0.13519311136603865 0.23700370945361807
C 2.3294367260121476 -0.06760248293960691 -0.14024587717699508
N 3.067125664673872 1.065118081983268 -0.4520678322039039
C 4.357900827437783 0.7731375424798099 -0.8115404160793307
N 5.321206741764986 1.5064035045845556 -1.1571563849566977
C 4.425180741200579 -0.7263275852546112 -0.7124560686625672
O 3.125936429426761 -1.1473169997092179 -0.29550275997997993
H 0.4684335495954172 0.7648212086963451 0.34326786819537736
H 0.6012028446901753 -1.0878369868274944 0.45144731232781693
H 2.6837209111103992 1.9877982407788934 -0.4111591718890374
H 5.079065378029167 2.495308447168966 -1.1617115883516949
H 5.167565940543035 -1.0417698297866438 0.017746107746084573
H 4.668241892411184 -1.171911010797014 -1.6861680773026013