16

C 0.9588620990131154 0.16539368896651996 0.12312908286933168
C 2.45109839353075 -0.010425859836179788 -0.07507975644123749
N 3.3015578698656087 0.9622389963095799 0.5962769656073381
C 4.009720355217892 0.05327469047652586 1.3242915279899123
O 4.937989252412842 0.15430878085167382 2.070667717520697
C 3.1651373411456856 -1.101375661169863 0.7661188048063
C 3.9238717637938234 -2.1941937511745837 0.04881366053412218
H 0.6004701387433078 1.077772523479699 -0.36783349195424536
H 0.7171899721312482 0.23697087440759257 1.18693748020019
H 0.41712780278197276 -0.6734172447863602 -0.2999332758489088
H 2.6857389945331906 -0.10301773496200689 -1.1436896911245804
H 3.429186203268061 1.9581057923901002 0.4627910924178244
H 2.5101534543143664 -1.5101736252162243 1.5374997690346541
H 4.570372913856118 -1.7708877946524135 -0.728947141695555
H 3.2406253967956884 -2.9058247917007027 -0.42143027814442263
H 4.551408245666935 -2.736294092127141 0.7419615489198726