13

C 0.8326910768948361 -0.18009246062663922 -0.03652022945377082
C 2.318481588413528 -0.04195010344134444 -0.03259554983336885
C 3.0888595639416163 1.0753045886533856 -0.03963331362964891
N 2.839758001140563 2.4167245090072953 -0.047850693005447045
O 4.390936139868017 0.7167267843494567 -0.03588105360035675
C 4.346864616806347 -0.6542649603485426 -0.032374278152683254
N 3.1652851463094493 -1.1388530040759686 -0.033815900228350786
H 0.34157077859721874 0.8001705833316872 -0.04098909937234121
H 0.4837143843596395 -0.7228227178722415 0.8469815113832168
H 0.49055249397370615 -0.7256641482800031 -0.9197880722008844
H 1.905536740330309 2.760138472459582 -0.04482902178854918
H 3.5999371968511626 3.070350551449459 -0.04918256961897172
H 5.304073975236042 -1.1626839423254982 -0.030963370636464697