14

C 0.8357742927295555 -0.09114121636686882 0.13430506408990917
C 2.3394734434390196 -0.02310404269705252 -0.04702071637827347
N 2.807837504464505 -0.028456313276417018 -1.4162668545734725
C 3.077971036284499 0.9675393872000243 0.8771712026959761
O 3.666898092876392 -0.13638985974399012 1.616128145931255
C 3.0996113843545174 -1.0581190995045617 0.7918181699663546
O 3.224083344722732 -2.236832750919322 0.7993664417159677
H 0.36971773097969296 0.7781040178340951 -0.35024231594801103
H 0.5515596233572752 -0.08490949824747268 1.1920268413887702
H 0.44116345959386977 -0.9992178946939014 -0.3204678471428952
H 2.1915858065241465 0.5227456692956813 -2.004750147449074
H 2.7959992351131624 -0.9774941765747299 -1.7752062966207909
H 2.4511582782019516 1.5738547000778558 1.5329043126534254
H 3.847069444117034 1.5566038269491977 0.386632741600798