14

C 0.8345289537763813 -0.004683148511855698 0.1553583080650604
C 2.314848116871248 -0.03656913695379167 -0.11581507067935747
N 3.12717000683041 0.9314214531209625 0.6284341041854367
C 4.0006194081680375 0.01603842941254619 1.1260426781278678
O 5.036312923355699 0.09582347192500529 1.7310856089372124
C 3.16174803200149 -1.1401664778811458 0.5503272795490929
O 3.828494222156797 -1.9951651265193673 -0.32694518977561393
H 0.3765906778169274 0.9196278803886149 -0.2149037676431063
H 0.6326814787545789 -0.07544936755575264 1.2238184042837963
H 0.3314195004306173 -0.8329716830219467 -0.3444548204069659
H 2.525638951735619 -0.0029331211546834175 -1.1906566328086718
H 3.17628582650796 1.945169070155535 0.5869856607631864
H 2.60796186122072 -1.6841586660722354 1.3285480094681592
H 4.666435145364352 -2.2477466239147863 0.08621894830271984