12

C 0.9723075578682978 -0.07894358133870924 -0.10655960991874508
C 2.287636908910335 -0.03528079651756111 0.11428222772427689
N 3.1482820480404086 -1.1038108561125226 0.2870831145629447
C 4.453163482189844 -0.6898126073645084 0.49142584546071555
O 5.402463785041922 -1.406177672078884 0.6753891286827497
C 4.388841539587459 0.7960981494064113 0.44075356836724455
C 3.1278925265074187 1.1620574387085902 0.21169230608609874
H 0.42875160736053486 -1.0071151206886717 -0.17464680257610216
H 0.4156625696769531 0.8434606917537726 -0.23242563530609378
H 2.8840840839680735 -2.0736513730127717 0.2667902275543114
H 5.265008292674665 1.41490686233056 0.5640952661130988
H 2.729904283969591 2.1565849143705655 0.11972553798251494