11

C 1.0461266127880617 0.08284480943220063 -0.050910281118280734
C 2.506962067092082 -0.01796082195876075 -0.052668975264998405
N 3.1966728977510166 -1.0986656947360658 -0.052657957296877424
C 4.535519766512444 -0.6680104254399772 -0.04926698251549573
O 5.521273121456514 -1.3495579557568278 -0.051334445690097756
C 4.470314694344964 0.8545489828861933 -0.04568457529505926
N 3.267568956272713 1.2361507649477004 -0.04847256525649237
H 0.5855814814953206 -0.9034540050225145 -0.05690110392313719
H 0.7297853463748782 0.6613066880217324 -0.9252178225624793
H 0.7206009396886688 0.6595606134551144 0.8195970257443388
H 5.321915671643997 1.5241953274887814 -0.04895731215939149