13

C 0.9365211352774679 0.05994061728880221 -0.04288214309654816
C 2.4115310299623394 0.08523878789961789 -0.03612963349858032
N 3.161237953652972 1.1655415073554025 -0.033418059230696184
C 4.4472282361168185 0.7244908633267229 -0.03602708407626659
O 5.482486753666256 1.5929620053570466 -0.032634151612387384
C 4.507903464808919 -0.6332952937528319 -0.033663198338166285
N 3.1823131261131157 -1.027684306861283 -0.03652136481836506
H 0.5623444311277569 1.080249671511243 -0.03422450804289089
H 0.5376582105361146 -0.4496227869338273 0.8388555259099598
H 0.5403688261743061 -0.44182758517694093 -0.9213478336853461
H 5.096853380656517 2.4738901782469362 -0.023498958066222445
H 5.336738197290578 -1.33197753029178 -0.03329662189027812
H 2.8564444957837356 -1.97692035598061 -0.03996693783983238