15

C 0.9542771418216781 -0.13444107778407957 -0.22640601484318346
C 2.4593478686879657 -0.11031518566090573 -0.06974785465132928
N 3.0537025005027374 0.22779842190726324 -1.3623295151660524
C 3.015751101345054 -1.3460562364938111 0.6371733598370882
O 4.054659767942411 -0.8679357018961744 1.4981294781647647
N 3.8484605595608623 0.4728592681418629 1.7216547005893161
C 2.963303307187935 0.9099438746861677 0.9208048673792381
H 0.6515899219265374 -0.9514488769014842 -0.8852682743530957
H 0.5999512064909222 0.8073856912289549 -0.6642412374546377
H 0.46038417773024837 -0.277412799839008 0.7359072414747119
H 2.726631473255052 -0.4015520321055034 -2.0802501577468924
H 4.064938532285875 0.16354323782880859 -1.328057298086835
H 3.4490827326129754 -2.0775370697816764 -0.050596442641592625
H 2.2527472103168824 -1.832168367015023 1.2476144221591885
H 2.707375437996321 1.9585149126406594 0.9315087960874213