14

C 0.9471418911469894 0.010616158039281278 -0.07985926284202922
C 2.426369588974156 0.10176690045104916 -0.08784079770656641
C 3.2632381880898946 1.1930144625229593 -0.08122020631381352
O 2.9317684724156536 2.513371604756654 -0.08005971983568612
C 4.600648144919147 0.734588448055869 -0.08533771851753522
C 4.550597402121173 -0.6304951032468409 -0.09269324384866563
N 3.237632722670738 -1.005545451905593 -0.08426115132708833
H 0.4923847414320914 0.9961390448078734 -0.07212883938805889
H 0.5565154439374226 -0.509417100084448 0.8015904780616571
H 0.5532180283219199 -0.5080093857282401 -0.9629285386273888
H 1.9746163752862198 2.599712875866199 -0.07717552120084585
H 5.489021838632658 1.3482902723095564 -0.0931656275892965
H 5.333587269635476 -1.369305093395258 -0.09293740304312378
H 2.9111226519062563 -1.9471280640853876 -0.09169091744422912