13

C 0.9804949166064494 -0.14920376302286859 -0.016146378822675056
C 2.4620177998056447 -0.033030314574315156 -0.010487735269588344
C 3.323809113618717 1.0371126824789874 -0.013678055982441704
O 3.042144438633213 2.3530636672544523 -0.01933758602899474
N 4.613674071813268 0.6484607269115773 -0.01743694006770148
C 4.582701916037307 -0.6670700432137181 -0.00598932443792957
N 3.3154522053929987 -1.1265178670232519 -0.012532646423256674
H 0.5271126055328811 0.8417457168732042 -0.014729762028099329
H 0.6015142287367783 -0.6742222913457948 0.8708802213264488
H 0.6081745544271016 -0.6706364629342539 -0.8911123412942576
H 2.0891645228257585 2.4751727693677776 -0.01836234764666303
H 5.436749421374564 -1.3204536312294817 -0.012218164142981344
H 3.0298506004584373 -2.0891927231822387 -0.011320422711803764