13

C 1.0130649418756146 -0.09667123122244745 -0.0033520720420811448
C 2.4911459362423676 0.020674718279745662 -0.00786138111480935
C 3.3280157687429734 1.1107960633984049 -0.005702941384246214
O 3.0253515393559884 2.4373261977130007 -0.007853510409601434
C 4.632912932947243 0.590654624830357 -0.01815527153454064
N 4.620893809800562 -0.7300567528555237 -0.020901565819985833
N 3.3288434412981402 -1.0554742464652636 -0.015173534425092712
H 0.5570666242317345 0.8937044789002959 -0.0015410251392980853
H 0.6480929729282039 -0.6216399157782098 0.8753949944694328
H 0.638990030064852 -0.6200729835820771 -0.8915275323723792
H 2.071728246966391 2.547406008339481 -0.004803620914639952
H 5.567937057504669 1.1355318571637005 -0.012862912774454418
H 3.0688637291762304 -2.0184883489387104 -0.021570406653058507