13

C 1.0407462037335948 0.03572932813154697 0.042203910930833505
C 2.5189012801857107 -0.03493354916962368 0.06995335233484061
N 3.2688903763603028 0.9825168613315359 0.23637563306773446
N 4.6514026136792435 0.5558139368176287 0.20566257191069584
C 4.687345568206368 -0.7023317528622957 0.018960437921196786
C 3.316267609344704 -1.308031693837082 -0.04304361820961058
O 3.0202464953593298 -2.158145065233722 -1.1171441307167322
H 0.7087602106424499 1.0759884252244099 0.05353381630342746
H 0.6051248475569244 -0.48548118463137857 0.8995247397299483
H 0.6513139407294535 -0.45986062702916936 -0.8563716709318486
H 5.62329839259668 -1.2398725118003562 -0.03993219041812616
H 3.1512173271667474 -1.8997728243844778 0.8711892634720383
H 3.213571271685968 -1.693724935182754 -1.938926683618275