13

C 1.1241735181125814 0.1277737821996056 0.016358892785950416
C 2.602391761138596 0.11178319255600554 0.010660119271274289
N 3.413299164170836 1.1067510450013514 0.0088442655413799
N 4.691794676979966 0.5794009437563689 0.005995348262764423
C 4.546603893556684 -0.701061373743703 0.0021118724456332468
C 5.590995375627026 -1.7377372933023476 -0.005146500795056776
O 3.249172131659928 -1.0716368566683818 0.002764389202926876
H 0.782906602391793 1.160064332450048 0.020558919940383738
H 0.7327667017760116 -0.3843263031009913 0.895224909625195
H 0.7270805718812975 -0.37990548699279 -0.8671218918177283
H 6.57407678087127 -1.2607779741862455 -0.009853984229064847
H 5.507540762941911 -2.3759577558180354 -0.8888089329505708
H 5.516385038087653 -2.3811164843436017 0.8839167417386073