13

C 1.0863567369337417 0.007673723067031051 0.0916786591599515
C 2.5729016886635194 0.06273121207225135 0.09011811655391526
N 3.1799563068047405 1.1808016594729225 0.09441053297656479
N 4.593371269056771 1.1754993987974331 0.09131924676551188
C 5.19077635820235 0.06272852448761894 0.06668417423613135
C 4.529625596585735 -1.2748034926489273 0.04947200936133048
O 3.117013514440455 -1.1731450643987713 0.06481974738137634
H 0.6904464340762668 1.0203935332535956 0.11326000629976989
H 0.740532792376221 -0.5452743620505955 0.9688392137959025
H 0.7263422583784354 -0.5249922348061618 -0.7885073537009982
H 6.282469475917513 0.08707892791535995 0.0597814317760506
H 4.842222315423438 -1.8693322423100014 0.9261335727863312
H 4.826731768201979 -1.8348505189966229 -0.8428985182843158