14

C 1.181447875172171 -0.028588398593835718 -0.060623131452337095
C 2.650269234375293 0.12690328458094946 0.044412786055445505
N 3.235899618085269 1.1987240962544428 -0.3501960180946915
O 4.595486651355548 1.1126286339933393 -0.08353946207644826
C 4.886938298715226 -0.1506468681516956 0.44271893289736064
C 4.624714345728289 -1.3271642752795352 -0.4272142629703737
C 3.5779658051145424 -0.8835811587738727 0.5712263794767944
H 0.7250167020848417 0.8724483958821262 -0.46355172766771396
H 0.7484308148358408 -0.22328426645820368 0.9335807030433276
H 0.91646424627731 -0.8832037026864572 -0.6922269728001496
H 5.676766920064545 -0.14215941673827434 1.1734785304360307
H 5.166003577027681 -2.236902305540011 -0.19281944130084566
H 4.419952860124966 -1.1638439132871967 -1.4832998664365469
H 3.297962218805524 -1.5324466331632653 1.4031780688410123