13

C 0.9275621479565246 -0.03031913843277704 -0.018280012742490286
C 2.4091119780579184 -0.09544640022730495 -0.026220343278857132
N 3.1348087596478855 0.9871012374389531 -0.02283750467758787
O 4.441996608500816 0.5930770006613523 -0.022148848277162313
C 4.49035394262428 -0.7560781477578413 -0.018460923100384812
C 3.2288873631462076 -1.2634765676094732 -0.01822063043007125
N 2.7818273388404964 -2.5549939237730928 -0.018214672473593936
H 0.6023237891505909 1.0070158586879103 -0.025883387648849118
H 0.5046824040555552 -0.523014071593618 0.8662791009324302
H 0.507154536706081 -0.5173352902286698 -0.9072419477211086
H 5.472371887738923 -1.2039690053483652 -0.015339814684908228
H 3.4146900271304284 -3.329122553028209 -0.01644195193044955
H 1.801895944637995 -2.757675598712659 -0.014624000221205902