15

C 1.0064975140248262 -0.037117188477037225 0.14684612777842004
C 2.4510016349262327 0.07544947785102862 -0.15898797565656175
N 3.134446715492519 -0.9215556475344713 -0.5683288887403627
O 4.440932036791241 -0.5458323441501849 -0.8104821132018055
C 4.642322032511161 0.7683522968384529 -0.2609909293179481
C 3.2446430400841306 1.3593512464288557 -0.1470067770087867
N 2.7653291864270106 2.2202429080823256 -1.2187017498022754
H 0.6377019440611298 -1.0302250913579536 -0.07061083211143121
H 0.44815377918312443 0.7004275161212565 -0.432048305606991
H 0.8278442238187248 0.18205065454342068 1.2097508116043216
H 5.3054156209708125 1.3190061813515317 -0.9282994366686089
H 5.104392287743542 0.656408707301908 0.723207647615977
H 3.1121154061422502 1.9043840135303196 0.7947185408947537
H 2.9335304132813693 1.7960885456969762 -2.1200473649118816
H 3.2285297985918056 3.1162588558776037 -1.1989118155045053