12

C 1.048667779709807 0.03134392715539968 -0.060889006434398936
C 2.5299055387792193 -0.026454370150879914 -0.05930327852557495
N 3.2643639635135053 1.0476177521280083 -0.054032348659562954
O 4.576329072599641 0.6475972012119259 -0.058957548563325385
C 4.614715484378001 -0.6981969334427126 -0.05143415902335668
C 3.3535879569694202 -1.1809075726714213 -0.057926423266151286
O 2.8679295456915916 -2.441616268899584 -0.05522204150698388
H 0.7286306486274071 1.0799460681356408 -0.06071392173156035
H 0.6399087564651216 -0.4700846725524795 0.8257265800405817
H 0.6384307050305071 -0.4716169477518603 -0.9376566638488371
H 5.596893525778301 -1.146241242205333 -0.058410698705564146
H 3.581858421404223 -3.0766993967617693 -0.05237823360027293