14

C 1.1300109569483074 -0.1009073962599643 0.263219343582908
C 2.5733678351372813 -0.0012821547278376623 -0.04971177047570023
N 3.262381145390871 -0.993569919320846 -0.4289663898626459
O 4.572955787446243 -0.623205981946258 -0.67444084678603
C 4.755035957764472 0.706153307393781 -0.17895741218742545
C 3.356707883261974 1.2915818543379785 -0.0833166487475752
O 2.951364696445952 2.1033287388197435 -1.1752668496692018
H 0.7741735674759526 -1.1092863493410867 0.07492946126563027
H 0.5635331754845476 0.6110970216794777 -0.34116499746101275
H 0.9400122179927977 0.14507819838153613 1.3143753297307017
H 5.399426097517296 1.2572176752883846 -0.8709803719972565
H 5.225959402287015 0.6501257287202359 0.8042225549726323
H 3.22767750594305 1.9084711468388413 0.7992893219086473
H 3.005794623031397 1.5764822135176058 -1.9730993964603725