16

C 1.0459375255584915 0.14561343185513215 0.06425434031532583
C 2.535701575933881 0.056633712209324547 0.14283476818436394
N 3.1320841625690488 1.141680803355081 0.4239982468994973
O 4.512750673372612 1.1570861110788302 0.5003793799882443
C 5.192754955225917 0.08482163594128508 -0.1358226282012179
C 4.638279166453576 -1.2520028970258295 0.3065563285740351
C 3.1768387095417654 -1.2846735272401424 -0.06759389853150727
H 0.7110942107891554 1.1669640423578755 0.2343217806075357
H 0.576739342359779 -0.5102109409749616 0.8084262554697336
H 0.6880225039649474 -0.1886017443257434 -0.917045973766081
H 6.242290728434602 0.21636093951416002 0.1373293225115773
H 5.0926263848517195 0.1871200156683188 -1.2250476881175154
H 4.762302150793805 -1.3460313481325203 1.3901910858284319
H 5.195894125628522 -2.074851470203144 -0.14695724008286648
H 2.6225085816336087 -2.0226713810873433 0.5118697316328508
H 3.0508494151594383 -1.5652301307237528 -1.1245260284857401