14

C 1.1666245616122213 -0.07018624963362972 -0.09401721996857176
C 2.6378189686329483 -0.06605238330814357 0.09340104082009215
N 3.226362695641551 1.0031369160039287 0.4494886450038653
O 4.61205420582851 0.9658136042110197 0.5960870254218085
C 5.223531567383925 -0.049391670269195415 -0.15795658220208578
C 4.58227671227069 -1.363396747567176 0.16288154693932744
O 3.190812509818184 -1.2745184146237571 -0.1323972710118416
H 0.7775108095185546 0.9327769475930302 0.1031782219044821
H 0.6978422343979822 -0.7833124997097027 0.585769765770266
H 0.9191749342336947 -0.3612344445921209 -1.1111908754339557
H 6.279391532580301 -0.03122367483587893 0.11272945103230206
H 5.12423904383129 0.16816098434213864 -1.2319510031551797
H 4.721085033008867 -1.6031850104260692 1.2238842050387546
H 4.981350078361707 -2.1845599827401054 -0.439506638514776