14

C 1.1954054673845733 0.02935167216580586 -0.17309308731863987
C 2.6654831678572357 0.01959773061568134 0.06025458951707562
N 3.2327682038791345 1.1498065725983808 0.24338247096873322
O 4.605372901844147 1.1268200770317238 0.43368686892673547
C 5.228312086903672 -0.016861592225444977 -0.10621235915437516
O 4.7166992951828925 -1.1873429506490034 0.43553385783820314
C 3.3585655077480188 -1.3011010991696816 0.09350005511105905
H 0.8200697691459254 1.0518717709357035 -0.16335531561321223
H 0.673891930159465 -0.5395424188084254 0.6006871212874979
H 0.9410552795925381 -0.42634361114549757 -1.1308263562263747
H 6.275735843030292 0.05221080089663099 0.1600765541180033
H 5.084134659602185 -0.012447461310393525 -1.1985639441079037
H 2.887562372402384 -1.9295093161374952 0.8576243598023094
H 3.233126301598426 -1.8291993833580928 -0.8710645440646364