12

C 1.1211857069242661 -0.059451145804629985 0.040991988654274926
C 2.595144489561909 0.030416617448456806 -0.1070784001910796
N 3.2998990201348626 -1.019964827252147 -0.2926330220686573
O 4.653636617328653 -0.649956932209866 -0.3993912570351601
C 4.792735941769814 0.7028141438451425 -0.2832376306890993
O 5.844659265224351 1.2466213312005914 -0.34432809997281005
C 3.4117015593565143 1.2725559187208892 -0.07785987914205858
H 0.8015649411026691 -1.1030271104389846 -0.027716326008887803
H 0.6204629636086173 0.5117244895497204 -0.732547916040115
H 0.8069362766660512 0.34056622049407526 1.0106167044527787
H 3.151966508554373 1.9814729286079786 -0.8618605609023213
H 3.350056706286532 1.8028663849836601 0.8726827580084423