13

C 1.0167490308502707 0.1871287784765709 -0.05635709935110558
C 2.492264884322228 0.0615919837299523 -0.04977261941427843
N 3.278269604262269 1.0946165108286707 -0.06506216365467835
O 4.544772229970907 0.5956564247758502 -0.06325031083095084
N 4.543677403332129 -0.7478429332959204 -0.05144865640354144
C 3.294922273491589 -1.1151147868086289 -0.05401666441075939
C 2.8744830294770374 -2.539785409433259 -0.044284976986058745
H 0.7254478526159993 1.2386827636610633 -0.05644480638279995
H 0.5771888994557466 -0.2863714896544433 0.8304179592539276
H 0.5779037300980543 -0.3015646622294277 -0.925820833983967
H 3.7547327827670625 -3.188736649626201 -0.0358995796708733
H 2.2714765498233547 -2.7776139121542043 -0.922625920223823
H 2.2706236384204006 -2.760810935759626 0.8467695040656595