16

C 1.015232457276152 -0.10096335308358151 -0.008352291580344517
C 2.5054616526827713 0.0042446873813187565 -0.11229809015342614
O 3.063740249365864 -0.08709589144403872 -1.4238335395711386
C 3.1742973608990717 1.14618616035415 -0.7290793580704558
C 4.549972731605547 1.5760588612067292 -0.35047820949685343
C 5.184290916367102 2.6918107126630533 -1.0702874719163498
N 4.730195466094946 2.859730864200284 0.31171461061023464
H 0.6908378242568834 -1.138642448728621 -0.11759574748572184
H 0.5341805977105349 0.49806909551770306 -0.7807054829716031
H 0.6771118165806875 0.2559158581710987 0.971270603566522
H 3.069994862563164 -0.5469143766516116 0.6364310441294964
H 2.5519065432506345 1.9449058232531884 -1.1341023326902644
H 5.169992934195586 0.7759235277022047 0.03950540032792896
H 4.620749339407315 3.161111186616593 -1.8649909133768816
H 6.254596798133256 2.703635736413129 -1.2006034885767725
H 3.8502373096823543 3.368124292622158 0.323941769361545