18

C 1.1781351203050847 0.03293856145939409 0.20758063839286472
C 2.551278930533311 -0.18091725276824525 -0.3444047268712477
O 2.6664127838735943 -0.7702424240246899 -1.6436644613079607
C 3.1507111093755773 0.5591284358936756 -1.4637274071350732
C 2.4081857696738296 1.6360855114881854 -2.198818608569052
C 4.656180836431017 0.6521740872465978 -1.5343384953024921
N 5.142052721199978 1.8902477634539006 -0.9304678203023464
H 0.7664862955513938 -0.9194732520728286 0.5472550635689436
H 0.5024466551474982 0.44657740148931374 -0.5320742549684102
H 1.2152092046710443 0.7042694141470631 1.0639533615629246
H 3.26538549180655 -0.5950795569279957 0.3723983521879689
H 1.3342528988849862 1.457328507592655 -2.2008362049705656
H 2.735507633554597 1.6668192437247737 -3.2445481501216973
H 2.5965564913892347 2.6139163004688015 -1.749747864643746
H 4.954331475299315 0.5198050420569231 -2.590891546993165
H 5.073527223120319 -0.18351883770116367 -0.9830568710934647
H 4.96618505015614 2.680096436569361 -1.535859075575077
H 6.13699105950735 1.849406673408285 -0.7995962652010712