14

C 0.8553520485046091 0.042979869781531115 -0.03245174779707275
C 2.3214135583329867 0.2681852073274111 0.1262220664730486
O 3.195380016647923 -0.6207021030590663 -0.5744638616329003
C 3.170662729965472 0.7387609944829989 -0.9642438207851862
C 4.444715397124431 1.5027976353755248 -0.7143203483178354
C 4.23859627119514 2.9384958342096024 -0.7899159275377258
N 4.061980413567583 4.071625699039115 -0.861889025961654
H 0.5280809633106767 -0.8109272018883211 0.5700753317774585
H 0.6110407605871633 -0.1636470696958605 -1.081614534305733
H 0.298313153752721 0.9254915984280896 0.29440069818410786
H 2.6585170467648442 0.5015700138309804 1.1394324389491906
H 2.70256834016905 0.9215826364635252 -1.9331581176258148
H 5.200618496141376 1.2178453663495439 -1.459204341456698
H 4.837953974988131 1.2466161495076293 0.2635366421421535