14

C 1.0968961328289333 -0.11894230576275136 0.04991392375469523
C 2.5365152721368442 0.14999327659957626 -0.22696283946534498
O 2.995371737253888 -0.08234515553080615 -1.5614110559399768
C 2.9794170978641135 1.257742623971623 -1.0791902268598785
C 4.292660994977906 1.9361248551664296 -0.8509789503116201
N 5.362098703906423 1.126322643299091 -0.9993591306864363
O 4.349152760773277 3.1031173660360625 -0.5234864605139897
H 0.9138300061093 -1.188591202721794 0.15655048401425747
H 0.4667527101153348 0.26158640950291284 -0.763140388694993
H 0.8013202152447394 0.3645404154692194 0.9811993951461667
H 3.2484410346313606 -0.19199887287075143 0.5301647410650032
H 2.2244933227490877 1.9125129588726961 -1.51309331300263
H 5.242747789422177 0.20902685887849806 -1.4001516052079384
H 6.286342929815879 1.5165991873881084 -0.897811520908481