18

C 0.9810901532647407 0.153344639718765 -0.11600717934380199
C 2.4712469325739748 0.08810016352743343 0.017939180909760422
O 2.927623620288254 0.2517718421790445 1.325857041738263
C 3.2707667197011734 -0.8122384963667234 -0.8725990582933377
C 3.3380573232213955 0.6893163464526157 -1.038610444444155
C 4.599474598967638 1.4354205786851502 -0.6984344474794292
N 4.334888843776639 2.863494111471749 -0.5950532593604957
H 0.4967875767377786 -0.6530447812412754 0.44859103557365415
H 0.6692642563236191 0.05925635337844676 -1.1591766686027611
H 0.6074669654889048 1.1038981312919758 0.2737698550109151
H 2.719926377955398 -0.5438663058314354 1.8250468209951922
H 2.7660995129433785 -1.3971896953754044 -1.6293962601463412
H 4.143513001032686 -1.2822844580820674 -0.42841935295863565
H 2.8004121268532547 1.0882584627911627 -1.896675988993058
H 5.368977722208692 1.1805318848826745 -1.4466672899034718
H 4.955218977310881 1.093184169375252 0.276568258616435
H 4.1457133943201505 3.2590676755065853 -1.5134500458650846
H 5.139671219970942 3.351422907340169 -0.23278774368416236