14

C 1.1754035272434877 0.054465708786693434 0.18986929274642417
C 2.3556728011211514 -0.053360310525031665 -0.4060522150315849
O 2.7041360602657143 -1.133254639962316 -1.1682056175132622
C 4.12024429363999 -1.205148230261461 -1.2736159293028113
C 4.630842682312743 0.17653512869147991 -0.9695296543131949
N 4.02678107910773 1.2646367173955426 -1.7007361518268365
C 3.4756361323856657 0.9052677444479159 -0.387286961931459
H 0.444294506632447 -0.746124080829366 0.13230105677661225
H 0.9143733504279368 0.9548361473432255 0.7256940288557028
H 4.362416607792582 -1.559317684271391 -2.2766440839898077
H 4.51556146693453 -1.9287241660862668 -0.543289058848516
H 5.652152112908924 0.3158494662523045 -0.63201588061462
H 3.4236403961613773 0.9169328249823512 -2.44144023929219
H 3.5542540586385742 1.6515881233911245 0.3917963362556038