18

C 0.9033001441168078 0.15329573757219445 0.13531032431105375
C 2.3845092396699425 -0.005720239859132109 -0.06355466910516147
O 3.1579781587423814 1.0242886230584736 0.5812812675867751
C 4.085706204136791 0.06056013471689194 1.1113694668814609
C 5.42779070656244 0.11794762587459824 0.42110270420137746
C 3.1494227433440947 -1.0886991099242813 0.7224634845588214
N 3.7189614571208294 -2.2494255450617837 0.10281387719249126
H 0.5428750660590407 1.0871459167679305 -0.3222475734430891
H 0.6581921207006137 0.18488379225861568 1.1956043390734192
H 0.3612837368629415 -0.672870689721398 -0.3347778247532951
H 2.6188648560119763 -0.05084237473561042 -1.136290655225286
H 4.2137286919501165 0.2120275782210025 2.1926718355790937
H 5.334422376343624 0.019629679414572557 -0.6581991161439428
H 6.068812354831707 -0.6914685496476767 0.7906290887110575
H 5.918346113232522 1.0664937880014465 0.6365759148434438
H 2.558277718046735 -1.4158739268534337 1.5906053927022719
H 4.12890364435409 -2.0360086912181363 -0.7968182451455931
H 3.0187827722036773 -2.9731750033178774 -0.04770390698668394