14

C 1.2696678836399045 -0.04839012064070598 -0.2603446155067713
C 2.713042453972253 -0.09151167146426885 0.22107037996430598
O 3.451601526173648 1.0432269923729829 -0.13191317884276924
C 3.6158039057900755 1.1380251595151214 -1.526947620732967
C 3.8251288509402976 -0.2025342115380475 -2.1337008643404403
N 3.725719491646589 -1.3149677467040215 -1.531389316267967
O 3.351029228990176 -1.2814332514244229 -0.20852281170611814
H 0.8005572090374823 0.8783469616284227 0.07535958075708346
H 0.7252899793347812 -0.8950062289456621 0.15949028195890802
H 1.2019356118912632 -0.10198194965800773 -1.3490435937626326
H 2.7480750470170543 -0.14607526612160607 1.3143637556353978
H 4.5082333687038405 1.75584280809415 -1.6960259039114072
H 2.7721440382872817 1.6578260800351075 -2.0022168409666654
H 4.122734595312465 -0.26954839586406876 -3.173949079560288