13

C 0.8660277952056226 -0.12721520513327716 -0.06767129672968841
C 2.3204744491362073 0.09451444901772096 -0.0629784189774239
C 3.1355844209931076 1.185811697600025 -0.06229764849080201
N 2.842910601157918 2.5165052124284655 -0.06596462766256239
N 4.451924969175169 0.7828312285045148 -0.06833759491654672
C 4.379449357496289 -0.5038950453696284 -0.059321818385101
O 3.1436350017272208 -1.0045093694739753 -0.05739223811538753
H 0.34405224535546486 0.8326122475862847 -0.06911429038027835
H 0.526606801338398 -0.6855138901312229 0.817792064880208
H 0.5289281106760304 -0.6820597205131712 -0.9444756893565835
H 1.9018082197868578 2.861482308923596 -0.07582826684880088
H 3.5968188367901113 3.175798592714583 -0.06800104251680325
H 5.202427302192557 -1.2159505271062705 -0.05614167327319384