17

C 0.9421422907601837 0.1157453022327446 -0.1098809534583765
C 2.4407083478300273 0.05632003438350443 -0.04161155940040373
O 2.9704092656979793 0.15551028851987378 1.2470878620253252
C 3.250492841779973 -0.7654205547183524 -1.0322779878599808
N 2.7015496149916 -1.5313219304741217 -2.0993725818842974
C 3.298944674091579 0.724671549846455 -1.0889662223459977
N 4.506575255755254 1.4230305569284345 -0.7952806804795938
H 0.48783125612463624 -0.7246813226137259 0.4246612065378782
H 0.6015296811110781 0.07789885637238494 -1.1520001674143243
H 0.5728080548924857 1.045728907011712 0.33758164838831684
H 2.8007545721071816 -0.6711734946635843 1.7044573057918213
H 4.12929299072573 -1.2091967220551512 -0.5701805490579276
H 2.3482403800252025 -0.9501620226906471 -2.8458556591997155
H 1.968884130352837 -2.161181537145401 -1.801831648220756
H 2.746437699444411 1.1675168239103373 -1.9062852770774183
H 4.9818200199189695 0.9670890466017561 -0.02906892024909049
H 4.293898539866937 2.36077321139567 -0.46691356041346227