10

C 1.1869601300468458 -0.05065931303536767 0.08564895340847857
C 2.4996422539434757 0.005206299060486124 -0.09813922293109374
O 3.2880868307162556 -1.0850435083909713 -0.3925525952139427
C 4.52961368169108 -0.5739302693260591 -0.4930563874354203
N 4.712671396690771 0.6662514309120628 -0.32137968205310935
C 3.4176879274598564 1.178471040431643 -0.05089963778022706
O 3.1331890500907025 2.3177846484669575 0.17600996314908995
H 0.6388466670786083 -0.9750583862325575 0.015067835534528
H 0.6663336090897414 0.8665381239161594 0.3094537330769922
H 5.296941892175176 -1.3090646013882457 -0.7272591974682963