13

C 0.9542793317722984 0.11641252742992622 0.034094885648263226
C 2.47993098785554 0.12511772709890187 0.08615496380614737
O 2.9552083108088247 0.08333325576531876 1.4114410062130125
C 3.0387595034004242 1.228014975770288 -0.7784350046302079
N 3.6664985932484604 0.799056220627665 -1.8006364392212535
N 3.669260891948835 -0.6415398903308928 -1.754272127314802
C 3.051256580741838 -1.0162272002397565 -0.7169026142306255
H 0.559414509729864 1.014813614443738 0.5140125016959153
H 0.5720169204634427 -0.7574422375164247 0.5615385629118672
H 0.5887051458615408 0.09229739828986826 -1.0012670202869995
H 2.4809704168539906 0.7425236620738814 1.9180691682820572
H 2.9209033507320483 2.2880381205308193 -0.5950087764759491
H 2.9225899904387593 -2.064564967913641 -0.4730950717437016