12

C 1.035583333889728 0.02039814332553484 0.07270002750541917
C 2.3625503761737674 0.05671465516626721 0.1321019096450293
O 3.018107241477118 1.1938389398981966 0.48387644925926915
C 4.36331247905636 1.1350372226797076 0.06703189644703705
O 5.033461935696093 0.02691840453700832 0.5725910571250464
N 4.45326892961056 -1.1736564560588638 0.18928457323914838
C 3.206561597379091 -1.1069790483360096 -0.071635100489144
H 0.4317870440511003 0.8957798715670463 0.27716148296030513
H 0.5331829239425449 -0.9109062095724988 -0.15221619261376937
H 4.869742733883583 2.022035448844916 0.44942364431400045
H 4.396906286975695 1.1048481885817474 -1.036591964283832
H 2.753395188929979 -2.039042097209394 -0.37803411490563427