14

C 1.041583593526992 -0.11629012367419651 -0.10802358646906608
C 2.5500213156480025 -0.10432884193579188 0.044645201199642714
O 3.176543105856358 0.16590736027844666 -1.1982384393098864
C 3.1122151327175436 -1.3511905750201316 0.7432289100190902
O 3.9960083616748645 -0.8757437027211774 1.7663984837208901
N 3.8338655607174648 0.47557634310174635 1.910473399697061
C 3.0513839443034247 0.9283995025399329 1.0193175642414902
H 0.7233567610203369 -0.9443678876802605 -0.7570418187388052
H 0.7012705331408894 0.8218619610124371 -0.5587962156799192
H 0.5433668597219138 -0.2466584640166439 0.847588456624118
H 2.693136623796211 -0.2893167097682911 -1.8873895083180534
H 3.676929768262676 -1.971587946209712 0.058875334141371756
H 2.322229915569081 -1.9381685564591402 1.221496729888563
H 2.837307755319341 1.9813831254380505 0.9669997442885128