13

C 1.020875620272009 -0.03909913400349062 -0.018576362943419213
C 2.4797319045609516 0.15235928712884922 -0.02185276147642762
C 3.2854330396294973 1.25752853249953 -0.022371428610718492
N 2.95075442405359 2.5831577863343766 -0.010937695696686569
C 4.584993491398629 0.7048339241485235 -0.030459643774270136
N 4.566366444571994 -0.5988815926758136 -0.030992179850531463
O 3.2534046246379167 -0.9599403020474766 -0.0287709548275125
H 0.5064683110643662 0.9199979355913486 -0.013701344653357945
H 0.6940239129295543 -0.6005200414790867 0.8645012628549399
H 0.6872736503720368 -0.590145837092693 -0.8971437838097138
H 1.9921318110774233 2.88138641336019 -0.006591504135437969
H 3.6627879020057654 3.2841792331457533 -0.013167975496265503
H 5.539114496227872 1.2179033659910035 -0.024391946781445784