15

C 1.0792130893273595 -0.020515480795829863 0.0058591663616608435
C 2.586040814146377 -0.06364493166892744 -0.09627848116045726
O 2.9757517242181253 -1.1720547356346986 -0.9314668146891851
N 3.3873216586158983 -0.7077129500378263 -2.153487479393417
C 3.474339781395026 0.557406895146608 -2.13084734699826
C 3.2007018129070772 1.1752145171262904 -0.7862989718011787
N 4.4206258199182 1.7511781603612637 -0.24718290790202124
H 0.7011482328510833 -0.9548404319832623 0.40752969619540774
H 0.6384095620505434 0.15225765067610414 -0.9725687548074755
H 0.769276239712113 0.7891526817068423 0.6746697885223203
H 3.0507874918569104 -0.2267654544343949 0.883400326805071
H 3.8100566095439463 1.0911323810210256 -3.004309850039803
H 2.461240454047332 1.9699710778155228 -0.8566152618572519
H 5.130185038666743 1.0453062532082629 -0.12204559753766105
H 4.25014268986047 2.1889852951596933 0.645351142991194