14

C 0.9734339592585884 0.14013661651913775 -0.14048672574976762
C 2.4409025392931496 -0.039005327721324666 0.19854170968281645
O 3.214393967657823 1.0970237882434979 -0.23615757891176095
N 3.5275346936175196 1.1865444699378533 -1.572302577942368
C 3.6548890036375923 0.07611618830028365 -2.199524201532348
C 3.5690588331316695 -1.2318487404078642 -1.5803179080780727
C 3.016184248720638 -1.3037693213856063 -0.36777921886755277
H 0.593426527344728 1.065902649345993 0.28939773892727194
H 0.398931126182146 -0.6950334275247908 0.2655031695706753
H 0.8230035798348944 0.15554254958222696 -1.2246386781865717
H 2.573600217940858 -0.015424908659531087 1.2864240906303044
H 3.926807034060097 0.1812122784065713 -3.2420816519735562
H 3.9773945296031585 -2.09192787185592 -2.08262668711683
H 2.950760139864083 -2.2270229353811914 0.1940565006968774