14

C 0.8760751598407368 -0.09626279849891077 0.21435215851546258
C 2.2607575342520825 -0.005232648912083781 -0.3627082737616902
O 2.576622890683309 -1.1552543741533068 -1.1170889206639736
N 3.3128522632531445 -0.7262632290418253 -2.234012282849578
C 3.141775331486915 0.5344273483316785 -2.279157499657297
C 3.6547898329319963 1.4359558759193265 -3.33236125131137
O 2.383728378396245 1.0639431581677798 -1.2985556722979328
H 0.8158788233352119 -0.9557346364307693 0.8835850608554183
H 0.1436107180149356 -0.21083108788909893 -0.5857977165725389
H 0.6502500491608944 0.806602627409456 0.7777748873380348
H 3.0235437826047695 0.14296152838077678 0.4213248345019351
H 4.220146342261591 0.8491140802548168 -4.061165038643338
H 4.301514914570605 2.201597577839003 -2.905434774568883
H 2.824758013784921 1.93182219169701 -3.8353955099198314