10

C 0.902442023650106 -0.13124147009632067 0.040288155526897323
C 2.1031653348126182 -0.04436339198362678 0.04803458318568911
C 3.508207107546218 0.06132937118677729 0.05332511230348981
C 4.352278917570293 1.1276625863886647 0.051003782895093684
C 5.631118267173769 0.5304983485431676 0.05309882297653293
N 5.559635289616962 -0.7731359019892899 0.060058289025141105
O 4.224331342301123 -1.0847647375089549 0.05938054546297942
H -0.15512073246809624 -0.20475024920366486 0.042035753493009496
H 4.085868929683846 2.168215517543497 0.04267334335096551
H 6.593951359504964 1.000786607347342 0.054925995809242546