12

C 2.4633055054156947 -1.2841208342263684 0.44106895050588335
C 2.2563706741257414 0.008699107071299002 0.23253279531194718
C 3.0626626880837278 1.0840809888153171 0.8102073185502977
N 2.7583980323112685 2.3211491560529702 0.5245609161140085
O 3.6581836262794494 3.1093336430431155 1.1935854741973067
C 4.504573312073274 2.3183428947903284 1.8673042327348606
C 4.185479469775983 1.0152367399673308 1.6721688264589762
H 1.8327485088258524 -2.027493731604184 -0.021299144408191657
H 3.2687060842210576 -1.6455108884360206 1.076296537304682
H 1.4508182080735768 0.34652273117597454 -0.40946260433754256
H 5.268959032676025 2.8174280827612677 2.439800521123814
H 4.675419220847534 0.14851737146692173 2.0866856582293356