16

C 1.4839683939244348 -0.9435716085764415 0.28070226036482543
C 2.5352516094039688 0.1050893628828022 -0.05350863297597324
C 2.931353779620477 0.09515332876194522 -1.5104375994383337
C 4.167984145703324 0.9244392951361476 -1.9109734760454324
C 4.767113391023712 -0.40106069994578064 -2.382992883616332
O 5.7859293081420855 -0.7557285480619407 -2.9183921048036674
N 3.661860620044322 -1.0858886139134432 -1.96742851007175
H 1.2105846996700664 -0.9047815484998306 1.338468024965178
H 1.842351780257641 -1.949793350998337 0.07020590639407923
H 0.569406420174508 -0.7885714829716608 -0.30133811075889083
H 3.4313851568824427 -0.07016240443883599 0.5455751540022904
H 2.159659922941924 1.102641456994624 0.19789298320240875
H 2.0583897835118474 0.31294479923284135 -2.1414427896049584
H 4.707714642142719 1.3910724847685916 -1.0851631713102292
H 4.0292097063318755 1.6487599429769297 -2.7169308003661206
H 3.384445046201198 -2.0434436277498675 -2.1109228125203443