14

C 2.6655357864423603 0.4142289189877056 -1.432240864127366
C 3.3499046084862254 -0.5581431434839313 -0.8441238885089092
C 3.378558421017613 -0.7808359221349638 0.6096594631726864
C 3.5495666231934386 -2.173510485801855 1.1499089338445017
N 4.603430317289521 -1.2240366268806917 1.2433050719301766
C 5.824301139920644 -1.3383072720212374 0.6373171204328997
O 6.4644622072356555 -2.3655458821643633 0.5582522178677133
H 2.6593405562056316 0.5334043909260451 -2.5050922805600533
H 2.0888668389269185 1.1275093869172177 -0.8486354359501352
H 3.9276799122695034 -1.2648838298579435 -1.440947015607774
H 2.7868728864812615 -0.0790564147653472 1.2007422982010465
H 3.675903224285791 -2.976709829768975 0.4294566205472118
H 3.056840088508772 -2.448068840491338 2.0670051508438796
H 6.205102330041284 -0.37009839897760705 0.26957751173976785