16

C 4.285355295739482 -0.13597383112014558 -1.650676512778025
C 2.9388212629016652 0.022030133373622397 -0.9663041165251445
C 2.7109975572222385 1.413289411500902 -0.4522376194229395
C 1.8913264302478143 1.6900817715721126 0.7680853869025176
N 3.3168314443158486 1.7700654254555637 0.8108327846194061
C 4.0073770226889565 2.9469080205503606 1.04917400930349
O 3.678045208521234 3.7854486663329814 1.840951213892767
H 4.431123384068471 -1.1544649476214064 -2.019033963490272
H 5.096235607453551 0.09526085480907506 -0.9602234553456221
H 4.372948863717601 0.5429695309361502 -2.5074959894736066
H 2.863006164346884 -0.6762774678449311 -0.12057404870950986
H 2.127886243664852 -0.23197229436173536 -1.65413910072087
H 2.709231711751041 2.19485284666607 -1.2086964838447969
H 1.4390341310224783 0.8648561815024515 1.3001760629468262
H 1.343934720228304 2.6337116554050395 0.8141640632662219
H 4.93096814801762 3.007567596733799 0.4522281658095477