12

C 0.9057074253306384 0.05108754902849486 -0.1402851733277738
C 2.1673858503813057 0.08448878693526364 0.2990876291025497
C 2.9373855281461934 -1.043142627835712 0.7185911178232055
C 4.2093360242690245 -1.1909688904577225 1.1847512021820665
N 4.464278995259172 -2.5172165972967195 1.4553430058259633
C 3.362479216663708 -3.1026790318230786 1.1515651554026223
O 2.38466510810927 -2.295495500287773 0.6997898200044985
H 0.4011164321224491 0.9556114044265845 -0.4373552854887342
H 0.3564194589203868 -0.8789021743429387 -0.20729888452567566
H 2.6942554167401123 1.0296086631156516 0.34483953183198046
H 4.959161959719238 -0.41993305076939813 1.3376723055107436
H 3.121820585361481 -4.154145488958249 1.2131551483426084