18

C 2.10360861837573 -1.2009372177518183 0.6374103901228673
C 2.4554219862083277 0.22724447623457855 0.2813838973821316
C 3.0781594566723154 0.3696107081221266 -1.0806455147005627
C 4.419614827571033 -0.27704436810517147 -1.3019951609351497
N 5.391919524373678 0.2302644715288881 -0.34553465420037843
C 2.236010773494588 0.6463032456014246 -2.241455247488221
O 2.9871411070324094 1.6833812222764981 -1.6433368197128093
H 1.5834670032819271 -1.2450118342700274 1.5962902534312424
H 2.9987426771852452 -1.8297817271395638 0.7216408496616392
H 1.445059308382142 -1.6516994796347215 -0.10915274535093283
H 3.149771202059274 0.641899786380068 1.0198710392120236
H 1.552552929799465 0.8637010628747817 0.2990829113861286
H 4.699638447708369 -0.11505939955753648 -2.3603384627080914
H 4.328288068227716 -1.3525838546918234 -1.1637059967001688
H 5.552834794638482 1.2141480520206973 -0.5133473179462112
H 6.2801262198854175 -0.2434432478973402 -0.4494012082368397
H 1.1656384822395145 0.7194304486950062 -2.111497191728279
H 2.5665354329787635 0.3492525544037251 -3.241597354468033