12

C 1.1788024927516552 0.08847672234438497 0.8461192350196924
C 2.2886545429631697 0.03439725633411304 0.11214231121648231
C 2.9580246730079405 -1.1782414389062204 -0.30893131207057434
C 4.077789854696263 -1.291965990393801 -1.0602749140008219
O 4.401518302238036 -2.5710680241243384 -1.25218435288815
N 3.4658389241511336 -3.364597875801745 -0.626260342486525
C 2.621757383240909 -2.544307939269238 -0.07913767710757103
H 0.7414055011369246 1.042338387528406 1.1243953729735898
H 0.6658119422172087 -0.7969629780749404 1.197298926821806
H 2.750864582436263 0.9606991596338927 -0.20386209312604273
H 4.74265604532367 -0.5694729354841126 -1.5064040896033657
H 1.7924141855309517 -2.9585437166935598 0.48163852708590404