10

C 1.0021554808268058 -0.033859288985356534 0.017783646496445097
C 2.2098878836560383 -0.01469948728615332 0.018925075282571806
C 3.6234474972146757 -0.024560578861766783 0.015776640525068063
C 4.476234349314521 1.0346392259716342 0.0159113768506676
O 5.73149937527505 0.6104974567207403 0.023125668803355596
N 5.75142096452098 -0.762407983077836 0.015638243406653592
C 4.5107501272554895 -1.1330609275016823 0.022602914965829064
H -0.05637358994781286 -0.05213483097927208 0.008218899513400765
H 4.326877849292834 2.106094383979834 0.01618357710404111
H 4.25456403424368 -2.188179333857183 0.014046946153267709