13

C 0.9936356637917869 0.11197893543833337 -0.1222016040342355
C 2.500207940071202 -0.12711594678685081 -0.07704441491375819
C 2.9868179230639114 -0.42108271542328213 1.2934358887989161
N 3.4727043138225873 -1.5887731920778316 1.630389980285549
O 3.7969388529968944 -1.4999606039454003 2.9422094859480725
N 3.5264907715626386 -0.28402885786175763 3.4434577818990992
C 3.02313051433303 0.3960314124019133 2.456772175070597
H 0.6678331470621307 0.33596617921683386 -1.1464902712290301
H 0.6974700365133295 0.9440261936775711 0.51247783123967
H 0.4454566196798304 -0.7766119261133128 0.212908755495859
H 3.0254344944423766 0.765928223676235 -0.4528709538317695
H 2.773317570020456 -0.9614340418961601 -0.7205827286295188
H 2.7182380291019466 1.422968016177152 2.5857767822531454