11

C 1.9734455121253718 -1.401104663600342 -0.235121638983195
C 2.2203776916112847 -0.14503881873999636 0.14388240380764333
C 3.0466117853502603 0.2194534690209529 1.2818348841670932
N 3.2450858931133157 1.469442541138566 1.6057471685309315
O 4.040475982621585 1.4592440709361265 2.6888261430909415
N 4.34761146723494 0.19889627233113888 3.072360792402988
C 3.752516978246273 -0.579672461943671 2.2209970508207375
H 1.3466314734336846 -1.6020685568383017 -1.094826974119355
H 2.37441876329383 -2.2506108952926818 0.2972122463496301
H 1.7969524963649752 0.6850936471796132 -0.4074066205919023
H 3.838263969906679 -1.6503196310308634 2.3101574053103913