12

C 1.589430428419798 -0.33858041993574567 0.9779238248134774
C 2.436908998688551 0.07172379222727049 0.028296424391951826
C 3.0737214935140775 -0.819338396347434 -0.9217830009066055
C 3.9392088555900977 -0.504133686516293 -1.9206656426137747
O 4.284701854296481 -1.6555486554708758 -2.5652186812789277
C 3.587191804258927 -2.614450593796955 -1.923766599345735
N 2.86668324620408 -2.19562922126611 -0.9454025656447685
H 1.146430384795111 0.3659121757756068 1.6645784788446076
H 1.3299680744391165 -1.3832402535276178 1.080425358402073
H 2.688485593023669 1.1228676458366649 -0.06670090749495568
H 4.39066123632302 0.407914219188135 -2.2724966354514344
H 3.7102230632253126 -3.6195501179389242 -2.2779012731567363