10

C 0.9174630747166376 0.06740136339006007 0.036831461516749014
C 2.1154339927669983 0.07307125286569753 0.04694177430144845
C 3.53668352555708 0.09278537053905969 0.045229886338318814
C 4.3600571208568955 1.1717968103360386 0.04670251055177407
O 5.627706049978044 0.7143877817278649 0.04721640903707101
C 5.513903583833615 -0.6253811876245117 0.05009282242481616
N 4.311107578938735 -1.0638706137598144 0.05107337991502745
H -0.14264614393868952 0.05556772841024027 0.04010130356045029
H 4.197379444590965 2.2329817298668604 0.03743676505049757
H 6.437239999952787 -1.1915456174621297 0.05538982505441855