14

C 1.4750484031189361 0.6649884406149578 -0.8973008485293879
C 2.2692553902519643 0.015243587517976855 -0.05720416297339442
C 3.1144750197626583 0.6620599709412694 1.0120490639079804
C 2.4722691634682863 0.6727893070266631 2.4030541557207923
O 1.9878059433129975 2.0151595147073404 2.574495125108244
N 2.6259963527821046 2.8408429738428964 1.6800253570277837
C 3.265924524468847 2.1462615677100034 0.8359572470740554
H 0.8766567548321266 0.12488680099087446 -1.6266050362051778
H 1.3804613537003834 1.7475654548011872 -0.8842287790360802
H 2.3200805043701522 -1.0624985139362535 -0.09778744347930027
H 4.0808760227965575 0.15845096008825027 1.0475335708418596
H 3.207692843767636 0.47484980382913533 3.1879680451931156
H 1.6214253186639414 -0.003905972860299878 2.5079685206582383
H 3.8118185331921657 2.641934716138007 0.04779683990907062