12

C 0.9243591740816548 -0.11946357462580788 -0.28140664470573945
C 2.1166864232792957 -0.07829059660754624 -0.14064544873592386
C 3.552419601244916 -0.044839994477914 0.050747823454406975
C 4.1641080829342005 -1.31474104400968 0.6609063337459132
O 5.187721510319868 -0.8439311026729167 1.5445890050047968
N 4.943186469365498 0.4767158720994852 1.8531998320206386
C 4.038764336713707 0.9418234927309734 1.0880578511104302
H -0.12807163906989127 -0.15320950409941442 -0.4155916070516482
H 4.024217760743629 0.20371048744484113 -0.9145666844793378
H 4.62087577873047 -1.9812378855905093 -0.07413119544457092
H 3.4051351775692935 -1.8562868251954314 1.2426189688233744
H 3.734772638193884 1.9777222132811996 1.1706650880812361