14

C 0.9658051358203595 0.03582694999920644 0.14678662888720784
C 2.4506123099710004 -0.09048782683553179 0.14699222762184497
C 3.118095587334168 -1.2471096324434305 0.13627977110656878
C 4.601975968465728 -1.4850729926354536 0.13455729738361175
O 4.733791535917116 -2.9107412070964016 0.12561899123914716
N 3.5010140684382347 -3.4905676477240037 0.10897499750621224
C 2.5935106046793233 -2.5912809225598425 0.11226671445778218
H 0.6529684981715879 1.0769322806812476 0.15224757747846165
H 0.5165616034972095 -0.4537526602053991 1.0125585939096051
H 0.5210263941529911 -0.43250013076738186 -0.745843043075962
H 3.0236875282602638 0.83135942698934 0.16709142868300603
H 5.096204117784706 -1.0982363549290743 1.0364084085384657
H 5.11063071210342 -1.0784477404502502 -0.7483783775505148
H 1.553310651426189 -2.88863975371411 0.10743816513151846