11

C 1.0275077726295194 -0.02496482856997827 -0.36177311233839365
C 2.1926772071273612 0.24384376210204742 0.2322580579496581
C 2.9226066478332706 -0.6991849578105902 1.046943602760563
C 4.107169298863023 -0.5749451513470999 1.699703913351751
O 4.38969080682003 -1.702396058629689 2.3221570024515716
N 3.318760265543916 -2.5815129700552375 2.0317992851745736
N 2.5050817232428972 -1.9800995122582672 1.3114783561022691
H 0.527412149216948 0.7219398341776639 -0.9572230165807523
H 0.5490030337025076 -0.9881865814631919 -0.2535828055752879
H 2.6448419099852845 1.2204378292046596 0.11379029205145992
H 4.815548244693476 0.23678097437822526 1.7973758940849531