16

C 3.3876304129849393 -0.8715081911614442 0.6718737908316645
C 2.322740852608644 -0.06417198225286383 -0.05382771037249448
C 2.905264998408641 0.9730582332604758 -0.9799820214821272
N 2.1337959562060123 2.100312589233397 -1.4378515989474157
C 3.1925059261799698 2.3446506335007413 -0.44979367787095303
C 4.371981417902688 3.079330028697967 -0.9587475783634402
O 5.131321116597775 3.687141463788395 -0.2593009848039525
H 2.937171285108428 -1.6244460293980583 1.318779121016905
H 4.017546895826528 -0.2262935178686123 1.2909855332012488
H 4.038832194852766 -1.3854353427634447 -0.040917443885681935
H 1.6651596741550738 0.4399355431551377 0.6684698511933365
H 1.6827066142272697 -0.7314370990595518 -0.6481067559516535
H 3.588635664072146 0.587581954379015 -1.7380393541932126
H 1.2347533424616728 2.1350057566770033 -0.974637812382957
H 2.929266172499914 2.535663061902881 0.5773704131456243
H 4.499527949342473 3.0173354613030474 -2.057551824952048