14

C 1.5399952058949373 0.610435364248874 0.5073945223407511
C 2.754568226908003 0.25082663281666634 0.1103603678077451
C 3.1347409289760417 0.04751573237587873 -1.3176925784269782
N 4.3775181325537025 0.7256469269840734 -1.770585773561907
C 5.147644344562782 -0.5318558244861814 -1.8518621064661798
C 3.852561845892571 -1.2898819774314985 -1.594937242665126
O 3.514199426278352 -2.4295757034031915 -1.6153974807182157
H 1.3065013567693904 0.7336484332832242 1.5596010103857838
H 0.737129433087012 0.7719966078941862 -0.20132148223550414
H 3.546362420081543 0.0926237563703586 0.8476245094227153
H 2.2832788540648314 0.2330154986789102 -1.975179655885971
H 4.745469731591146 1.3985619532948321 -1.1049486725932354
H 5.880078464707013 -0.7021686860798271 -1.0497135380874418
H 5.626286748367454 -0.7227231861373741 -2.81437169485832