16

C 3.140496176294712 0.18372348839298283 -1.1858156414584449
C 2.3156902814320306 -0.11659105665497768 0.05533540853374772
C 3.0654594210500665 -0.9684654521968067 1.0665412015520759
N 2.3344964918739755 -1.350774872834214 2.291443589527573
C 2.251443061766107 -2.7739312244224257 1.9006190228761302
C 3.1503921137207547 -2.4514582200432407 0.7085574271059774
O 3.680874723835579 -3.0851384338841115 -0.14183496782078298
H 2.5651948717599167 0.7832291377179628 -1.8978772801076869
H 3.44942570608307 -0.7380073800848462 -1.6821397181530964
H 4.044801043362254 0.7414501501710868 -0.9276264496420286
H 1.3772681352456302 -0.6149179875032881 -0.21571926249273882
H 2.0250429088585444 0.8222416305910409 0.552296037621861
H 4.042361757328241 -0.5133433919629892 1.2874553126583204
H 1.4348988197460688 -0.9062071855125993 2.3738451200820543
H 1.2613825760313806 -3.1376626465808233 1.5986632158671814
H 2.668250674991164 -3.4727562440932576 2.6302724061882143