10

C 1.0959698793564745 -0.04580922996360024 -0.04653500402005201
C 2.295000619207727 0.007151250756232728 -0.05238454291894875
C 3.702291499944299 0.07494362015200985 -0.051773487525916255
N 4.4616937803304975 1.1298141845898912 -0.05919934975642518
C 5.745096356515668 0.6439262724514043 -0.05738026363133474
C 5.69713140283393 -0.7090530283917944 -0.05050423030052007
O 4.397962117301762 -1.0888724106445247 -0.05349868846233777
H 0.03941952347102638 -0.09214952518847719 -0.043969030245295804
H 6.603688500503816 1.289254799152955 -0.06548525317052661
H 6.432122659064432 -1.497217489650249 -0.05584220294186297