13

C 0.864331662378809 0.13562894058395092 0.005919739786903112
C 2.3823094625117025 -0.0736679389967149 0.03820652661718598
C 2.803762239587028 -0.9932081692896483 1.1163171846868496
N 3.2792650745601826 -2.195317828810451 1.007750952556044
C 3.461155572198264 -2.541658124713009 2.315452603989683
N 3.1217767135698304 -1.6342354474751322 3.1772572967943566
O 2.6796682325630234 -0.5932467375495021 2.383259939091511
H 0.6027014863677341 0.8202597224105447 -0.8007922811957726
H 0.5025117738106684 0.5482210278825459 0.9392597201722274
H 0.3530104874449559 -0.8109636529673422 -0.17661065168892087
H 2.882602214060777 0.8909900099393894 0.19177588659782827
H 2.741182335765401 -0.4860650841765332 -0.9058572130570426
H 3.8519402610311695 -3.5035431681651596 2.632655478556976