9

C 0.9283621002290716 -0.052604437463215775 0.053435954193072885
C 2.120718455701111 0.006560642359056882 0.05065346050659192
C 3.5272358078537636 0.07415671559862642 0.046856873347183345
N 4.285077753182751 1.1324955070335017 0.049427906361328
C 5.531427866697537 0.5685841921498751 0.04398774268858294
N 5.549430650598513 -0.7267912997611652 0.04911019694055335
O 4.215002485857738 -1.0707756391898045 0.04723522945972037
H -0.14205594586555637 -0.1020297628076317 0.05682728295146304
H 6.440874600380038 1.148029226055758 0.036690379825861