9

C 0.9586757649451653 0.04729906355774157 0.08064590472273636
C 2.1522691806778393 0.04592710023936148 0.07499941078718012
C 3.571318248233259 0.03990033097485066 0.0746759945499247
N 4.27575165253486 1.149754540230372 0.07827216953627229
O 5.576869328494334 0.6964996492972096 0.08348556972517981
C 5.520170864452696 -0.6234277740628745 0.074167910738327
N 4.330970755591124 -1.1093879027816502 0.07587008935182346
H -0.1064184416667216 0.04031146266424147 0.07536344849712033
H 6.457643469303955 -1.1659684929263223 0.0819944520008315