11

C 2.2491183871294673 -1.4445330468589097 -0.1801406190657727
C 2.126639363223176 -0.1566626543356294 0.1475916048915111
C 2.840892387476617 0.48164522133196624 1.2185828687102542
N 2.768111442958547 1.7285296735582254 1.5797022851101334
N 3.624435379857176 1.875101928262668 2.652274330250994
C 4.142243095907915 0.7266648154937616 2.852512604782226
O 3.701607570359501 -0.218843178039497 1.9989057143284403
H 1.6836431322269252 -1.8637686323110458 -1.0017094047170458
H 2.9003001360895815 -2.1076613743175687 0.3670570879913502
H 1.4729314832203058 0.5108306684426231 -0.4070432489672848
H 4.8519522354402085 0.43328985428930017 3.6088167537261433