9

C 1.0680797044874273 0.03710270089005025 0.04606595004472694
C 2.2683284993899187 0.0908173057709954 0.04023052878282224
C 3.6694845609397517 0.1534542541078183 0.045419828074909165
N 4.435985877757464 1.2036934347404071 0.04915588471690576
N 5.728760769679023 0.7440769504583192 0.04811691887793376
C 5.657500822803363 -0.5361551597286573 0.046313325747180355
O 4.39265339949729 -0.9999473342790506 0.04141597543715012
H 0.006547605797603638 -0.01033943291742732 0.04480003957797028
H 6.459487263800928 -1.2598835583816843 0.04553269382995323