16

C 3.939533333485482 0.436515201196478 0.657297790468058
C 2.6294691422771965 -0.08382351736721623 0.07102048517077972
C 2.8217911097602397 -0.9892208953059505 -1.1049017519965039
N 2.432990915232208 -2.195440617090437 -1.0753928011143206
O 2.7018575613997196 -2.8101686614198105 -2.28468311895329
C 3.551323844842597 -1.9551625591365525 -3.0572179982062964
C 3.4041761254620164 -0.5869369415429916 -2.428967423387727
H 3.7389682360581102 1.0810932573060525 1.512047554453822
H 4.510854324803199 1.0107283838255072 -0.07332373125851353
H 4.559790809536093 -0.3973038811956506 1.002910398594426
H 2.0157106401142606 0.7659150183551007 -0.24686174570675867
H 2.063176785424958 -0.6301889334548774 0.8244283995134665
H 3.2254598631096263 -2.0139756316176496 -4.097845417380739
H 4.57753932462167 -2.3302002554810817 -2.9843814041274714
H 2.7120560855322378 0.06915112399256255 -2.962275195043381
H 4.3601535736830765 -0.05286108860682217 -2.3352671349599876