12

C 1.512944785007827 0.5201599620038403 -0.8172988417838257
C 2.419033320026454 0.017370391965877155 0.01766573681694908
C 3.174199166992403 0.8234494966143373 0.9451746548393283
N 4.048088480009643 0.3588398315775151 1.7493521584840468
O 4.540136841450825 1.4445959888621696 2.475153105524509
C 3.8691949792497606 2.611267066147908 2.0203506283445307
O 2.972243221122886 2.1612493467356058 1.0152451637082736
H 0.96934934558464 -0.11735885391963795 -1.497111091074371
H 1.291596646506693 1.579849956608109 -0.8364758634117214
H 2.647692870920402 -1.0374084158197354 0.04411149779080363
H 4.589787484343318 3.311087141564113 1.586565827202838
H 3.3036003988701617 3.072618343814934 2.8322042317686704