14

C 1.0120023360512633 0.21268916366007523 0.04400193288696509
C 2.493744911456373 -0.13284453343347624 -0.017172053805880404
C 3.077291890312496 -0.4283520843634482 1.312077376884342
N 3.62026359085144 -1.529031324584959 1.6604831489453165
O 4.100891742112421 -1.3073997062712586 2.9679306825241962
C 3.4816433900975587 -0.13222314725588385 3.418862665486649
O 3.0908036000505885 0.54538040383561 2.2431848376780916
H 0.6344314315494225 0.4323086837899442 -0.9515654698451866
H 0.8367843789552198 1.0823337280991034 0.6692857494133096
H 0.43653252696895783 -0.6234823945608564 0.4512758149129675
H 3.055531893820826 0.6956838108542583 -0.45591699739917846
H 2.678022233704274 -1.0085971296142209 -0.6510179395176123
H 4.19226165656971 0.4688685674119396 3.985971707196707
H 2.5857436342505093 -0.36793608723112126 4.021285156598757