18

C 2.7996763838005725 1.1536031021466855 -0.5607714630022491
C 2.2160202918756746 -0.23839630055251673 -0.36180545919572704
C 2.925776692285351 -0.9934937985444966 0.7114813796504883
O 2.6954575608425357 -2.3936391876684766 0.7826272673572784
C 4.000435644347704 -1.9479255421808221 0.42789737136661804
C 5.082015391415287 -2.2641192544110984 1.4070376340387165
N 5.485057144563075 -3.658986496486292 1.25853610982234
H 2.264418702443871 1.70602059203446 -1.3312989438891003
H 3.846407947968043 1.0957689407717808 -0.8671633776248759
H 2.7581411831051534 1.7430620741736702 0.3601682425221485
H 2.2545661926478817 -0.8112879793934001 -1.2818295794884738
H 1.155481071939581 -0.15681043260291125 -0.08367257923665859
H 2.945161300089961 -0.5191700004436021 1.6923232231226304
H 4.258983467228723 -2.1270708554172395 -0.6194630222497712
H 4.731545707376176 -1.9893025436024971 2.410953679496993
H 5.952294490513014 -1.6317049941714146 1.17615862453095
H 4.695127230338853 -4.251875108464914 1.485554861236405
H 6.228327741390892 -3.884540725095402 1.8996961116045052