12

C 2.5391835619810337 -0.7975540986205161 -0.5459275706189571
C 1.9205361922687425 0.09969833809743832 0.19954158006372494
C 2.6115240335109675 1.007318393935323 1.133239043334509
O 4.028766798325049 0.9707680919701581 1.15951928678875
C 3.432052682117114 2.1375031992673557 0.6272964457499853
C 3.564030355980988 3.346592070901156 1.3972377123756277
N 3.647849608727146 4.32917913533648 1.988420455294127
H 1.988491380579177 -1.4515594627484345 -1.2181878479758255
H 3.6209645217251314 -0.9063149842261401 -0.5119234029701486
H 0.8342261420522883 0.19433321384019442 0.18373446813864402
H 2.155655305981328 1.152694591567349 2.1036616781991224
H 3.5260266026292135 2.257588163570722 -0.44345083197706103