18

C 3.0719392483370616 -1.2713697755414124 0.4614747084959331
C 2.4370409879680484 -0.031155041044357366 -0.14137529851501898
C 3.3437672961488563 1.1621005706050296 -0.057305799473718555
O 2.7496435928339653 2.3665904338242454 -0.5835503679809971
C 3.196255765786411 3.1328445228238273 0.5393210465391823
C 3.5822915778406763 1.8611916486571638 1.3055523466693446
N 4.846629564147029 1.87473792598943 1.9707514235371817
H 2.407553487748474 -2.136842620770483 0.3934371375463586
H 3.301909035642964 -1.1286711432594678 1.52729230696557
H 4.010789057727065 -1.5396866494563166 -0.04054146470895624
H 1.5056496490238436 0.20494648903889123 0.3685030775559445
H 2.186664902668765 -0.21132611233027562 -1.18716122524048
H 4.308770003339408 0.9583473428179977 -0.5660716373458051
H 2.4126252795908787 3.761735765609855 0.9473920087526773
H 4.074932845564987 3.750960616017936 0.28878192712565454
H 2.8112691287450673 1.57583773273937 2.0180450295046293
H 5.608443563785601 2.0247860799020505 1.3270758243238103
H 5.0318868926603155 1.0042211583915759 2.4503248765679446