18

C 2.6330712550662585 -0.38165893204778545 -1.5913839970626515
C 2.443073019798396 0.0415037338661707 -0.1465334117348694
C 2.972797353893492 -0.9032583834396625 0.9092598549915659
O 2.861155941799975 -0.38653668161451865 2.205339234361076
C 2.8545760164866962 -2.399690610994958 0.7894587586383166
C 4.20431078099912 -1.7538705125820693 0.7218955762411012
N 5.150640892599676 -1.9780846542680208 1.7699344101269736
H 2.2005375431564316 0.3629826998754934 -2.259737917931343
H 2.14152460880504 -1.3389145825669202 -1.8057677103182654
H 3.686933141235343 -0.47524883595168144 -1.8584935362322828
H 1.3810192373727583 0.199982930880355 0.048132322297246365
H 2.933377376143274 1.011013868465341 0.02066843433073886
H 1.9349811794289242 -0.41379549654238534 2.4586429498753684
H 2.4391186819150312 -2.838495451511022 -0.11327774107782566
H 2.616027774315049 -2.9353570017136823 1.6986913322912593
H 4.6607635128101235 -1.727481943181696 -0.25764243611408
H 4.683616968560111 -1.875165076914797 2.664221424717488
H 5.86104282212348 -1.2519138178991904 1.7457182671714835