12

C 2.0382526809107633 0.9534789470152509 0.7318064182875693
C 2.0171365675105912 -0.13270947516158485 -0.015897442871840646
C 3.035097971782538 -1.217707987934877 0.11399348769436465
O 2.4248517219867143 -2.48936582078004 0.38262911860400084
C 3.0723429126528727 -3.325454323533709 -0.442346913818106
N 3.839727025041966 -2.8096771628677972 -1.3011161555665363
O 3.731254452625299 -1.4232024519355986 -1.102542642971588
H 1.3036861863507951 1.7365431610553035 0.6194663696976783
H 2.7990771182219483 1.0899191672701865 1.495518060440683
H 1.2714948512667688 -0.28774930579801794 -0.78890396686407
H 3.745651408061917 -0.9995208528605006 0.9311817827602171
H 2.8812218691016023 -4.381850446710569 -0.3583395541303664