10

C 1.016662057605993 -0.02812340536791938 -0.07843226822424654
C 2.2124143216012273 -0.03223409215807065 -0.10126130822984403
C 3.6842066042549106 -0.024460825369880673 -0.0704321728677755
O 4.2032230535393005 -1.1396949171286102 -0.7877801347710445
C 4.677257927631762 -0.5891910718414739 -1.9311753295842076
N 4.701006610335037 0.6709624275284063 -1.9832475691319547
O 4.22561229380239 1.1051778207400689 -0.7338266621509731
H -0.05039895241804145 -0.01439932947412129 -0.08228602682233202
H 4.054868057126201 -0.05231648590246601 0.9550225837592182
H 5.0166548976977765 -1.2472142973308837 -2.7119261904262166