16

C 0.8854162834921604 0.18987788421723953 0.20405646490586074
C 2.367897826813661 0.20786678250069449 0.0811520236950908
C 3.0910831363716875 0.14071546208407948 -1.0439106388569321
C 2.555399963558107 0.05743152847986105 -2.431903951755246
C 4.588200204452555 0.2261460329933515 -0.9877013659917432
N 5.1883885645114365 -0.2478371018700527 0.14163772730927252
O 5.234510259164607 0.7214667925072681 -1.8943564996952313
H 0.5772550046930498 -0.6177301738506242 0.8801903480387157
H 0.3787614109741217 0.04871657478716506 -0.7374031630082359
H 0.5331551055409821 1.1245938530474044 0.6585498546060207
H 2.909101075540925 0.3359127597821735 1.0115835542566602
H 1.46435756824807 0.15116215774984249 -2.462136974852339
H 2.8287666947839534 -0.8852451422618915 -2.904468556721553
H 2.995701013506487 0.8513696193953566 -3.0379488482382273
H 4.70610705480233 -0.8810786143954751 0.7443324197703345
H 6.195493868164327 -0.25306588442664824 0.14763480441065963