16

C 0.8925060445709588 0.02740704508508553 -0.00725990067260114
C 2.293735346917697 -0.24382482666550975 -0.46300959663627395
C 2.5669230141101016 -0.883128647921211 -1.6008945420723704
C 3.3824276062731493 0.2620821562823023 0.4385177561100556
C 3.440004573198318 1.7519447375575463 0.48830130016452705
N 3.245432259222101 2.3589756872033654 1.5766732234247796
O 3.342649936599984 3.734720481158046 1.4252014706877445
H 0.1609795361071415 -0.3413216369295922 -0.7309538027452624
H 0.7212785730208088 1.098511752900259 0.1400496059484683
H 0.7003280803137673 -0.45226409967765185 0.9567466926504709
H 1.7744307464704412 -1.234041141226607 -2.2519973108975604
H 3.5836391745706946 -1.0659230854615962 -1.9079944042381827
H 4.350717412250335 -0.12195137685276494 0.08043813189665855
H 3.2329516502255062 -0.11095142617984391 1.4582663177480728
H 3.6437387957060783 2.3055117432174534 -0.430122884842718
H 3.183837156502119 4.053358899564442 2.3150868559485596