16

C 1.1381857430927032 0.0009735184179835324 -0.15798533836059642
C 2.6196985719126253 -0.324033331427573 0.09451222956826731
C 2.857917979419082 -0.6454680051736784 1.5369410049363923
C 3.6650906869300863 0.03482978343999981 2.3399362226129594
C 3.0475484971582842 -1.472314503820253 -0.7633079688800837
N 3.927847084469766 -1.31692621453271 -1.6594353576108194
O 4.178577390075807 -2.4813747235313848 -2.354847851316723
H 0.8303554096317928 0.8420073547285186 0.4529050667505751
H 0.4999721874443884 -0.8599460779020299 0.08701200606423765
H 0.9683429176137082 0.2456918864835294 -1.212325671704884
H 3.230499418266223 0.537817192141699 -0.18786261589422815
H 2.3040120128569916 -1.496895107070269 1.93598212346139
H 4.22709677039515 0.8927009758353829 1.97477001003294
H 3.7922056778685196 -0.2293695508632679 3.377991791553802
H 2.580938572558614 -2.4512657682431995 -0.6185970720710884
H 4.863255623815085 -2.214938365690859 -2.980871306282362