16

C 1.0488557507888787 0.1456559794974021 -0.0976878128866183
C 2.537921375276272 0.041253324035474534 -0.12635932647846618
C 3.0928919776924184 -0.7627742884749709 -1.2657861927699068
C 3.2922090560161617 0.6314676519873077 0.813147398768223
C 4.7223247075978865 0.6084589309761135 0.9108088033725417
N 5.292966689068989 1.2203506295062332 1.8701477017737096
O 6.670705920366853 1.0913779095996328 1.8095630441651716
H 0.5864781418207199 -0.8396884990082861 -0.038838071628021525
H 0.6783425319690065 0.613007643838844 -1.0182454915545682
H 0.7061911808005391 0.7434056903238615 0.7497661808449906
H 2.6865994900101065 -1.7811901878392873 -1.2460364442834195
H 4.17934042837839 -0.826629544420164 -1.2711028267064368
H 2.7737538641686412 -0.3263957179635005 -2.221732356301692
H 2.788560679029576 1.1874379224777463 1.598297375577881
H 5.339147333858643 0.07690429079484123 0.1830003494062612
H 6.974702077345089 1.5834235097980323 2.572372126179375