16

C 1.0686000104087368 -0.12416265376093662 -0.07360190671192379
C 2.5491722715173757 0.04108155917375796 0.0218455055680428
C 3.036008903575999 0.5263248778600165 1.3462187620936898
C 3.320670174048045 -0.241691247313039 -1.0265100950378578
C 4.799626375459119 -0.13486781399419154 -1.111092008131082
N 5.30306430087002 -0.49136248799849985 -2.3248704591251896
O 5.532326067733874 0.23161719649551576 -0.21334542855309446
H 0.5580532685008041 0.8270597950930029 0.1330565253501111
H 0.7136635819678 -0.8345703176420253 0.682286470861179
H 0.7502862380329074 -0.4826067985067269 -1.0519522069870262
H 2.5696903037059475 1.4860393364039464 1.5783594872579285
H 4.122269081437076 0.6361374832221509 1.3723022382349606
H 2.7212342559424236 -0.16167982124680882 2.129681600805694
H 2.8327686851229608 -0.5808789511200908 -1.9382596609382068
H 4.71787377059662 -0.7951876529012486 -3.084684121738307
H 6.29784957570115 -0.44324917536569514 -2.4603357869678364