18

C 1.0634677591546118 0.03824412274244668 0.015340851077625617
C 2.5860351200119163 -0.018994952938775084 0.0999156677053554
C 3.1435343023162603 1.336489276147084 0.5300821398735329
C 2.9977017753307695 -1.0720189021174977 1.1258528512381087
C 3.1649891011997693 -0.4163142109480762 -1.25674903535214
N 2.8895360320483103 0.4260116924564778 -2.287739419839899
O 3.83192332068903 -1.423951341871392 -1.4245983943277047
H 0.6404955879089073 0.25999972358888734 0.9984554652398906
H 0.6464024442573588 -0.9054277912234883 -0.31930250448361175
H 0.711837533202846 0.8237788111806943 -0.6664423383091639
H 2.788411502399213 1.5970351335801696 1.5283735207450866
H 2.8363442841155626 2.142586347698046 -0.14808311679540181
H 4.235698373738161 1.3260887078488088 0.5554413919799789
H 2.589162598104077 -0.8114599740829032 2.111508663198542
H 4.085344134787328 -1.1525318113378418 1.2081678100768791
H 2.624284342846224 -2.0579087326971504 0.8478462435609491
H 2.34535372156258 1.2599526969426602 -2.1804758076963435
H 3.255952093251517 0.19542609919094253 -3.2011530196734097