18

C 0.9329554771779454 0.16421723382134104 0.018191020347028873
C 2.446441838409406 0.028806890887486343 0.1464042103210202
C 3.174761687743942 0.8487939537887129 -0.9141813321695074
C 2.9206498602684445 0.3922711639016496 1.5439079842350971
C 3.592521534279385 -0.6262781557914372 2.4148414361868347
N 2.7133336072958048 1.5882394844805918 1.906765156282914
O 3.1793719431517413 1.825300042595554 3.1949164299839206
H 0.6055998178037874 -0.15059988517166856 -0.9799760481804504
H 0.6393875910449183 1.2089297416637734 0.17109554386077253
H 0.4195081307199495 -0.44607081916092595 0.7517091560181832
H 2.7105321397373654 -1.032815261810649 -0.0070762865127039455
H 2.9433360453025332 1.9089698469595866 -0.7896516845078011
H 2.8618349511563723 0.5472807832211083 -1.917089235384672
H 4.251206426144301 0.7290428538460777 -0.8538915397291125
H 3.682700157428595 -1.5900355620664715 1.9094696726222864
H 3.046735691983204 -0.7553742972742874 3.3397204138066114
H 4.594738407761669 -0.2760218415221661 2.6911703830706246
H 2.951628784303517 2.745067958306006 3.3263347174514815