18

C 1.0885833836483527 -0.3871803968990782 0.506654256878457
C 2.43165670344013 -0.1499717674259664 -0.17672169667558776
C 2.7938593204131505 -1.3096052896816348 -1.092717048295669
C 2.448813216376428 1.1715894438477463 -0.9604848602752775
C 2.2903636714740165 2.3724631233709155 -0.0901368312933045
N 1.3268319584623083 3.175162903904974 -0.2668863801088918
O 1.359451971299148 4.220665902725079 0.6326745313680266
H 1.1040963979716008 -1.303263140327859 1.0836231214922625
H 0.2885517828451442 -0.4658012823583677 -0.2352307808712852
H 0.8279284908212423 0.43762470168445744 1.1791095913394716
H 3.201446766849149 -0.08337804541929765 0.6018556256276117
H 2.0581934531463695 -1.41203748658366 -1.8944017166532647
H 2.809937697998569 -2.247873285711249 -0.5430718350159207
H 3.7710053910450263 -1.1644173703590404 -1.5501500419986611
H 1.6449034036393522 1.1715595878458664 -1.7051098490287122
H 3.4006667769774936 1.254163409444018 -1.494566429392744
H 3.0272814317480363 2.5539242743394577 0.698379752614769
H 0.5863599526528076 4.7415021674488935 0.3909897017756714