14

C 1.245822917537123 -0.11692149501325053 -0.5773285684323999
C 2.65939595378184 0.20175737755270506 -0.2649339669518157
C 3.6643879432449715 -0.8895373945594052 0.02376892960698739
C 3.1414027311492387 -2.2423910567189544 -0.025472109469267083
C 2.7317575760766113 -3.3646494613132645 -0.07176334399854696
N 3.000070023775796 1.4324714379876764 -0.24420867120787604
O 4.346047197003456 1.6019738544183688 0.06628111435793102
H 0.7793325499087326 -0.6691268699832766 0.2418562475368748
H 1.1877937980367101 -0.7568129247922444 -1.4677167801661877
H 0.6939398166728361 0.8083538645373691 -0.7601657257072262
H 4.110050701514379 -0.6942932582049351 1.014008310160357
H 4.5054800545886575 -0.784028507111069 -0.6778807661683326
H 2.363393754068246 -4.3623197159621085 -0.11489798546173995
H 4.448443753248887 2.5529620265389137 0.045651275282991136