14

C 0.9270284085271412 -0.02495005882678046 0.05489334629645132
C 2.372656958632069 -0.03917029228053194 0.07234176029115331
C 3.5754648824017816 -0.08052940747391386 0.11035477509230383
C 5.002400081774892 -0.05645867021510565 0.08775442599629339
C 5.712719653133485 0.9067300911485042 -0.808382008418565
N 5.596146731242046 -0.8888810504814438 0.8568393953097275
O 6.964232683122454 -0.7711095126834742 0.7509479577248553
H 0.5324666399258764 0.2621159378713885 1.02992979600835
H 0.5285129751246116 -1.0059797819503098 -0.20634199236783657
H 0.5598046064403687 0.7027167715917606 -0.6803834813217972
H 5.001347576528698 1.5112786941315648 -1.361689700310767
H 6.355114346187541 0.35891624618008805 -1.501755180606644
H 6.362514456213674 1.554935052969737 -0.22029770129104542
H 7.290337042630837 -1.435658204955299 1.37172994435087