14

C 0.9458766739968629 0.07504835890515328 0.09401813949143398
C 2.402406764295572 0.07152579357663215 0.07395035240523212
C 3.6060830764359806 0.07273656743775553 0.0515221879656382
C 5.054492465222899 0.0719246975032406 0.010366789862233447
C 5.588573415132951 -0.6204922381404234 -1.1984188783987642
N 6.407677991393874 -0.01178657330463901 -1.9512931454936657
O 6.806022928742065 -0.8031641894512975 -3.02227788472419
H 0.5785710817891898 0.38789243665693907 1.0767949177570113
H 0.5578590836164428 -0.9244147936164324 -0.09982249502335386
H 0.5501369854974164 0.7534392753811653 -0.6609329162450547
H 5.438972734067452 -0.4343892742180012 0.9153260220064429
H 5.455015630372782 1.0844666296779188 0.03292057535628886
H 5.262744010359123 -1.6456176408197476 -1.423106855019553
H 7.403565505812177 -0.22015184294246629 -3.499403055666783