14

C 1.1268153462747872 -0.11791930432227112 -0.29426110507480485
C 2.576789433708018 -0.0662767316986447 -0.1656226050451134
C 3.769392540753992 -0.0033244361075241737 -0.06810436446744168
C 5.211680907264517 0.051916972880292324 0.05121813674600048
C 5.953891013999372 -1.2825159313954497 0.13815952746795168
N 5.173385444570951 -2.3886682510281174 0.10232500201977847
O 7.161776735421573 -1.3107986818016277 0.24091005351721403
H 0.8257774145291545 -0.6556184571478778 -1.1898630256076528
H 0.7068719527384074 0.8916652016499719 -0.3524752102369765
H 0.6749194373746396 -0.608949288271222 0.575407691596191
H 5.512320321490725 0.6162105623304667 0.9357843835050969
H 5.659231476491522 0.5842154597263715 -0.7997576292351883
H 4.173088636369664 -2.302402185127575 0.018478480133896993
H 5.61194070758259 -3.286912524890677 0.15498300783974955