16

C 2.1532001707427275 0.8915071669449129 -1.1937030457153917
C 2.9159074920540786 -0.014097190746858822 -0.24345954549236448
C 3.216565900299433 0.657027915000944 1.0545748569651274
C 4.428849391797284 0.8361899891967672 1.5784918824622216
C 4.5971541697570935 1.5237406865941652 2.8815576843077255
N 5.887137851579595 1.6444490176166555 3.295942235883726
O 3.6672738338474944 1.9657616750351985 3.535754323552799
H 1.9031124420862509 0.36520022629374116 -2.1229070999849746
H 2.7388462831391815 1.7754583736146174 -1.4604665724580266
H 1.213571541307788 1.2331486215027563 -0.7521721260928036
H 3.843488201583236 -0.3657573974850876 -0.7099777670551245
H 2.315651585475071 -0.9029928849733754 -0.03364798158901373
H 2.372198422126915 1.0376492209144774 1.6240956421784865
H 5.318099828557796 0.4818691167563436 1.0532308116989801
H 6.656284040903719 1.2847283958301188 2.7583737082796955
H 6.071535682244989 2.1005163593236627 4.166104279471674