16

C 2.8384348531308228 -1.3649839223258358 -0.8636742627063719
C 2.4570480692390846 -0.1545456723529768 -0.018954311362178622
C 2.7808737047422687 -0.32263835307836414 1.4292575276839163
C 1.8637206962269348 -0.3724847949860258 2.3923844142635615
C 4.252642777644977 -0.3507571543410489 1.7484031720812803
N 4.611644204658293 -1.0853331106693707 2.836558078006135
O 5.055522941752685 0.2805411425173968 1.087936257815112
H 2.6069688343250896 -1.1959629203366033 -1.9165276049577296
H 2.3049696193739675 -2.260733061995045 -0.5393544199400013
H 3.9140355656348094 -1.5689505364471334 -0.7983354856057056
H 1.3929416837188715 0.048994630628301145 -0.12185926930217494
H 3.0036360616482627 0.7194713118689242 -0.3898959007744758
H 0.8045148857673604 -0.3006803574257326 2.1553586007701115
H 2.134871131013813 -0.4373211394277045 3.4388898014778166
H 3.9885445907376846 -1.7567203726075133 3.238401519104844
H 5.594099058111556 -1.152067122307527 3.0421191919092814