18

C 3.2440012816843975 1.2072463297139304 -0.03194541006868967
C 2.7360734591182108 -0.2226838075638688 -0.16007715657084592
C 3.224489980824757 -1.147064582226222 0.9565849954093908
C 2.557705311649344 -2.51627716534452 0.8632973343958193
C 4.709547263194206 -1.3059940911670687 0.91056782377608
N 5.436255422202614 -0.9607937661887451 1.8908455498379553
O 6.780573631977308 -1.1956399112391265 1.6495932015572738
H 2.8596613359349985 1.8222201580920545 -0.8510333038952134
H 4.3326327818847865 1.2469528553581244 -0.06603004750602719
H 2.926632116999467 1.6542941753627183 0.9022274722874329
H 3.042133808430023 -0.6429865929348012 -1.122497155046237
H 1.6449890504488196 -0.23055941632072577 -0.15339983552404307
H 2.9764976983117575 -0.7012536562178245 1.921997037983601
H 2.804947439171144 -3.010098200750213 -0.0784439773641136
H 1.47438545444624 -2.4227516345599738 0.9117779128307155
H 2.8712970010966514 -3.1745012926290457 1.6800650101601449
H 5.172318988336509 -1.7291511907827422 0.019374831351047315
H 7.199062518467241 -0.8889335479072114 2.4593690726626045