18

C 2.389735434820423 -0.05415883332380259 1.0310527735151052
C 1.9989857630977699 0.6644084511684866 -0.25366083886488594
C 3.1169532477312583 0.9775236887074701 -1.2000245253426962
C 2.797799311726652 1.7683627846796839 -2.427791481444848
C 3.0835989374892745 3.248608082382728 -2.255827916382378
N 4.273169200181264 0.5696732222864288 -0.8861528321428565
O 5.239028657793453 0.919590645228426 -1.8307243206066337
H 1.5087722967749058 -0.23251483415757723 1.648315978274642
H 3.1095931206407967 0.5351109795541426 1.6053101020986946
H 2.8499612649552524 -1.017287520556272 0.8148960680019693
H 1.4872588433841745 1.6165431725170232 -0.010167745885587113
H 1.2476084005433867 0.08047933266860194 -0.7992106006522506
H 1.7359298688959213 1.6210756282352978 -2.676153731119386
H 3.391273099699243 1.3754655156417033 -3.26182467781022
H 2.511809829570809 3.6686578659328477 -1.4281649947958046
H 2.8190270731865787 3.8087593345514383 -3.1563860631419036
H 4.145433746571649 3.4178018087788216 -2.044329741436325
H 6.033539716080134 0.5213327315553685 -1.4781818713399122