12

C 1.0701235972652168 -0.048207691530423175 0.1245993771375995
C 2.3987124959104373 -0.1016429639896663 0.1988282317673954
C 3.32728240566539 0.9053028266872708 -0.42217884331509825
C 3.731611682853836 1.9307951628424738 0.5262721841714116
N 4.032658046216771 2.756478271088354 1.2719090762296292
C 3.0207438267389928 -1.2422247620250186 0.9084428058316335
O 4.206401094328986 -1.4302391912388468 0.9662787135110734
H 0.5451965157069332 0.7494462598905969 -0.39180672389394794
H 0.46205360243869303 -0.8042905978700604 0.6006392747065656
H 2.8564561721775625 1.3872309359582706 -1.2716231110710117
H 4.231665848703344 0.38959588560516645 -0.7681523967883782
H 2.299582526009448 -1.9375464739381483 1.3847483278118002