14

C 1.3389152824613588 -0.33645752553799674 0.41372824776861294
C 2.4783348542683368 -0.010028445225855363 -0.191260680839432
C 3.095912151101852 1.3133444930367133 -0.13093209547336682
C 2.399294289860435 2.4483297183880275 -0.1819559140676979
N 4.499277603014796 1.2878693187128687 -0.05196447421213845
C 5.343548013708319 2.2069479131891927 -0.5895995652784787
O 6.54485326725569 2.176008605115998 -0.4553474408898524
H 0.9112334534174497 -1.331720071357494 0.3052732156462287
H 0.8105119248798688 0.37764034240244493 1.0277894591446448
H 3.0155211406292093 -0.7616602692543747 -0.7712170313595952
H 1.3330505085989417 2.4186646130899416 -0.3726601473091432
H 2.862454785147842 3.4250402621107012 -0.04878276823140992
H 4.937820565292558 0.5068363021988617 0.4158616882634838
H 4.816808361349929 2.9753043301862223 -1.1891280138331943