16

C 2.175354048317039 -0.13534846560217195 -2.0868764858550266
C 2.4764020236618816 -0.283459609085984 -0.8020518147728593
C 3.0242586396084783 0.7820513859692475 0.08208442686331978
C 4.450233626770503 0.4714186523450336 0.5439535005364647
N 5.361373168479819 0.3956785258261679 -0.5669575295843402
C 6.563964989385556 1.00872372665197 -0.5941929290802931
O 7.036823619575829 1.6645470571695618 0.31364659473466816
H 1.7932959233565209 -0.9542924189530457 -2.685855749134828
H 2.298113854761085 0.825471231544245 -2.5829019378395373
H 2.340474698135643 -1.2624263195432242 -0.34143628975018503
H 2.4048439789063196 0.8803433969696954 0.9764333835066643
H 3.0198050252423387 1.7384317827723705 -0.43175143126188065
H 4.4642883997150955 -0.47099596832440943 1.1161664554795407
H 4.822711569700618 1.2522226609187401 1.2041269794881926
H 5.071061669124196 -0.1117154651568959 -1.3935591133638823
H 7.094681162704531 0.8493766372153252 -1.5449941354341263