18

C 1.2517319811181367 0.7555922880075231 0.06750058481369231
C 2.136513642063144 -0.10036018321632725 -0.7589457236789471
C 3.4195396474869226 0.02766772558894035 -1.095930242205272
C 4.471199648170322 1.0748277499460381 -0.8180345530772928
N 5.705774117125298 0.5073191184063923 -0.26683829906761225
C 4.099539700098717 2.262364802933839 0.04157422745184606
O 3.896056009869642 1.844979615822143 1.3840950746186873
H 0.6020001084538594 0.13809529365055426 0.689084913389332
H 0.5855259377772463 1.3509931696157615 -0.5685923969898385
H 1.7969533339630646 1.4284674278013727 0.7312546437966304
H 1.6458720464313483 -0.9867629087069396 -1.1698273043493947
H 3.828455450727057 -0.7563406668291422 -1.7297793611398053
H 4.731659185922129 1.5092487972072426 -1.7890463311453022
H 6.001693141471305 -0.2835059332049446 -0.8208001205972046
H 5.510143752194929 0.16838886761321945 0.6669471910841774
H 3.1908469339798127 2.742705719053194 -0.35161668341731517
H 4.924745884846113 2.980122054852915 -0.012464531514564293
H 4.084176366513951 2.5775448767800557 1.9666633670500824