18

C 2.8675722167561917 -0.7525988491128672 -1.3397722370608833
C 2.6769015730243964 -0.6741070584174829 0.14426052910207177
C 2.0567377403966245 -1.650455522084364 0.81695353091861
C 3.204503152574964 0.5718714822779911 0.8129495584438959
N 2.977707825271329 0.7003598570633655 2.247715595309832
C 4.7124287019399125 0.7487211394271235 0.5980720836514541
O 5.151012707087892 1.94756831888938 1.1905113413023467
H 2.3177106907203266 -1.588050778592879 -1.7687347924578516
H 3.9305857061289706 -0.8893974339945032 -1.5958365761044733
H 2.539368267348544 0.17258547688780954 -1.8268781329417296
H 1.6808983624742084 -2.53159810367481 0.30457471643711836
H 1.9059499786819865 -1.6039542136901552 1.8847633272609363
H 2.718753947693911 1.4275955209402202 0.3316508070488373
H 3.2819860320450616 -0.1311320928630737 2.7375484104604113
H 1.9993759581949344 0.8414393868928549 2.4561013853580445
H 4.94659991566349 0.8053680131198424 -0.4695005213232237
H 5.239666494505176 -0.12357892056911554 1.0195063848149897
H 4.641551631054353 2.010776796575349 2.0053950340579636