18

C 0.8333329771777124 0.6150413229135259 0.3361649588179572
C 2.265284056539575 0.15666377844414214 0.5385622840071196
C 2.515741308409062 -0.30684943772449474 1.9714753982027662
C 2.597648435828027 -0.9430362938717665 -0.46790014584198314
N 3.9793431268249364 -1.37720890406762 -0.4597759307441553
C 4.929020278108539 -0.8079135802307227 -1.2349960025197295
O 4.731470917162454 0.09916126006883343 -2.012854817031246
H 0.5839800622270571 1.423684076755254 1.0250383575121111
H 0.12749782155823003 -0.20832912656978164 0.5240458126959067
H 0.6678854419649761 0.970338339837981 -0.6742949552353663
H 2.9398315910087764 0.9984899656784595 0.3216582711317796
H 1.8679866645464442 -1.1468289199607495 2.2177602790002484
H 2.2905801891946367 0.5023241878604215 2.6804858464235757
H 3.550578170004655 -0.6072534170067048 2.1240630815282264
H 2.3879705268291276 -0.5846614701660241 -1.4850278825892038
H 1.9658084993038718 -1.8211081377415579 -0.2868776717249372
H 4.261514853010711 -2.106600666787199 0.17624399701132565
H 5.923218913320155 -1.27039254751389 -1.0894682355032477