14

C 1.058082845425181 -0.06535502029799403 0.027157757495400964
C 2.508457495703548 -0.05033819221099308 0.040209040572609454
C 3.7074423112062855 -0.04914884031929889 0.04515545857035599
C 5.162899694003757 -0.044419980683550006 0.04815808891495381
N 5.676620832914297 0.922211084389568 1.0036844922863943
C 7.000052474153108 1.0843523541733777 1.1717687218685513
O 7.848828047969783 0.47914499259558635 0.5645792195113352
H 0.6520416111051331 0.9427949330864698 -0.10766502804168569
H 0.6561971448793597 -0.47538901472541456 0.9579287159945925
H 0.6815642947939821 -0.6797550160493357 -0.8024275628722859
H 5.540851292231133 0.18883861886279907 -0.948550483113426
H 5.539574424405751 -1.0421038022932567 0.295496113175891
H 5.026338260908702 1.46481582883339 1.5432482739239874
H 7.23856845940992 1.8551329812118724 1.9327803907851038