18

C 0.6736534083238089 -0.7528602392295091 0.08672504215621134
C 2.1571758750769434 -0.49212146141647434 -0.10948531201453651
C 2.724514457540023 0.5006059404332022 0.9062840778374578
C 4.2120330695117545 0.778022674988877 0.7339236125184869
N 4.549141185927674 1.4174548284688564 -0.5205976229955601
C 4.6002610008800735 2.7525186647246596 -0.661964974690771
O 4.398457110283371 3.5614713523440016 0.22319526518590208
H 0.29541098706132884 -1.4565497155663167 -0.6493632542554085
H 0.09421133580146472 0.1748616400143704 -0.0037685547371539333
H 0.4807472071721921 -1.1604184378535194 1.0829241188873506
H 2.326037309392204 -0.10048632543673935 -1.119848008585312
H 2.7146834927273544 -1.4364097037714079 -0.03869738533203222
H 2.5634254814825175 0.11032864709395451 1.910561758847646
H 2.1839788643904363 1.4449622207357007 0.8402637918313353
H 4.786081149679358 -0.15686415108309484 0.8036616681719635
H 4.554410353188107 1.4342968510944778 1.5334710377045357
H 4.709390125459729 0.8533630300724059 -1.3377057692443524
H 4.87420428677024 3.052103044099324 -1.6965659852011261