15

C 0.59072885530194 -0.48717912461888346 0.3803559866456756
C 1.9259368347253645 -0.4345171482864294 -0.2541005276243711
C 3.087559785791347 -0.46294220830849536 0.4019845983835436
C 4.406698393116852 -0.4265315393157857 -0.2386867403156833
N 5.493057180102306 -0.9380109922484718 0.21065908389539856
N 4.468197715481028 0.19016543782923695 -1.4712446148170626
O 5.7592352526425845 0.3051197307320678 -1.963058670752186
H 0.0007907213740480741 0.3982544291442903 0.13009520108023784
H 0.6649130237498654 -0.5461966576813748 1.4686997818102123
H 0.021438741086040398 -1.3520888135695366 0.023034941437390054
H 1.9497820816403386 -0.38616244845511727 -1.3427573887844182
H 3.099115159400534 -0.5568508922969974 1.487814248434873
H 5.353139828907006 -1.4307539124850246 1.0846843535784627
H 4.00499046485102 1.0872154462366705 -1.5153304599284423
H 6.285238962040184 -0.12933235841936339 -1.2534128427363325