17

C 0.9832686823272457 0.2606679865194903 -0.10179437318900372
C 2.4804424431637235 -0.03007461007465995 0.026533735360574216
C 3.027686959873978 0.447242317030302 1.363242155471774
C 2.744707441390643 -1.4983793972844164 -0.17734337384757037
N 2.4461871690078687 -2.482030544665684 0.5828101741918161
N 3.327704027929348 -1.8157413743412218 -1.3785407033267922
O 3.700663407910074 -3.1452955257160307 -1.5061505047173427
H 0.7910834343204204 1.3242552269855465 0.0028729128226946286
H 0.42222402189486 -0.2655730749869305 0.6843138025871943
H 0.5959029914946024 -0.07585636248091836 -1.0649012369591926
H 2.9904288545403834 0.5085568445904739 -0.769013571436865
H 2.5340739689053544 -0.05042952105224468 2.197783375484469
H 2.868184652891497 1.5168402376659333 1.484000000092122
H 4.099562018345886 0.25146825159268305 1.4509520454480966
H 1.9698281321885365 -2.185891812507227 1.4253238938349646
H 4.068812453290973 -1.2089767160645872 -1.6853658484690577
H 3.3725068957826942 -3.5103034016019445 -0.6517346269475256