17

C 2.0897617779579005 0.681279291241025 1.4639538552878752
C 2.5031698090259282 0.07686241368797403 0.12733779794802377
C 3.0378412907775143 1.0958665241116379 -0.8299107384513968
C 2.112226375872954 2.122327591353705 -1.431325601335844
N 1.8064650757332472 1.7590743190939322 -2.8111489274579875
N 4.273597681962441 1.0250995215605327 -1.1171180076510034
O 4.672011804652317 2.0026736585278475 -2.0217660517988714
H 1.6772744874830086 -0.08851867433757718 2.121475241111776
H 1.3323738572817532 1.4534216079733553 1.3453368461060602
H 2.9444120388110684 1.1222572707432241 1.96867365370831
H 1.6430157499826386 -0.3995042989482953 -0.34505792360147486
H 3.2720586431555616 -0.6849303452993417 0.27444515498689603
H 2.5778890897246516 3.113042056344726 -1.3224287464627598
H 1.1838068342393218 2.1326410845172714 -0.8645290497941934
H 2.652684538100616 1.8136581409411217 -3.3617519886670078
H 1.1458962158542967 2.41996423821173 -3.1989770045197616
H 5.6125932482809295 1.832874949485607 -2.1180213852300542