18

C 3.1388153841702766 -0.8112395403863607 1.1728926390097927
C 2.5958742713431233 0.0633372905494575 0.05915611515749343
C 3.034280870473558 -0.3895878859410352 -1.3327153304154404
C 4.497889578934417 -0.2516550708119615 -1.5592481325650451
N 5.2014958062022645 -1.2645480438049035 -1.8528700924786823
O 6.525337751918497 -0.9365911932682145 -2.0249041091190687
C 7.256898045023951 -2.090994575076044 -2.3568258989161452
H 2.8113497010788 -0.46617709962872694 2.1547687311604884
H 4.235191607341706 -0.8210947872818115 1.179324611047425
H 2.8030897696606516 -1.8474306830661051 1.0572040214441318
H 2.909848880407297 1.1006626984669745 0.21895109413368136
H 1.507013504581424 0.0686309863378707 0.10201641288832795
H 2.507522017728698 0.2247189296138097 -2.0781852140656807
H 2.740123921965352 -1.4257710946442206 -1.5095776767943039
H 4.962007713836449 0.7318258874475199 -1.4573293060901717
H 8.292985836154447 -1.766570526579281 -2.4824355531024085
H 6.894481718303737 -2.5353601182991747 -3.294692020483835
H 7.190977011051025 -2.8421147841155667 -1.5622308930979953