12

C 1.1930410888095977 0.37343969379762704 -0.0859155430958875
C 2.309512171880795 1.0376974117784519 0.1658376333920125
C 3.4845975323398686 0.4694909502080681 0.9189276413553537
C 3.0411957585464875 -0.6344889485789249 1.8734746738627608
O 3.411609288032528 -1.7736682110420467 1.8421616204399178
C 4.546366096926336 0.03460467984491132 0.019990415121989607
N 5.378993781133754 -0.2758953778102544 -0.706826774357311
H 0.37975917963146544 0.8397597325570835 -0.643882215862307
H 1.0437848746547151 -0.6535894109703367 0.23255455132485364
H 2.439431207774185 2.058760363974556 -0.19641675976591694
H 3.9021964819737236 1.2580685292696274 1.5536898492039408
H 2.3137718525895368 -0.27469529885351324 2.63306676274004