14

C 1.0708242548221345 0.5891998469297749 -0.06852562345950329
C 2.503751523243747 0.22182574082805023 0.036014274115994956
C 3.06291134150654 -0.6852649040946386 0.857651417284268
C 2.341081538963883 -1.5227825874799414 1.8650504877523362
O 2.3195774024333895 -2.8615170016819405 1.4199202955571626
C 4.472273826418738 -0.8963602536263077 0.7716456045791054
N 5.604699175736442 -1.088146484656353 0.7443680011713018
H 0.7350963780478776 0.48145692358583586 -1.1069492309439328
H 0.928098586450475 1.6440149331092642 0.1938602413775143
H 0.4167476529604387 -0.01863091554291549 0.5671243125536501
H 3.1765632668304553 0.7488659616689285 -0.6364041043131821
H 1.32124297838351 -1.1365173485775955 2.0089166759442487
H 2.8580669374438212 -1.4402902563946791 2.829391465268311
H 2.3373727496247967 -3.4470322645154052 2.1757658880167856