18

C 3.8185411532500515 2.1431994384748694 0.2206671082325487
C 3.3673436067102664 0.7385792289808595 0.47225638268485276
C 2.8568079608459693 0.3487662727003038 1.6328589509536116
C 3.5563586481480325 -0.24407314916929596 -0.6541262663922125
O 3.175031702274297 0.33713118038957596 -1.8769972079681574
C 5.006483312169509 -0.7203603907529226 -0.7564117718762756
N 5.157046536866972 -1.497730985083022 -1.9785592226938198
H 3.672090112970996 2.771098669894977 1.1018813081295
H 3.253222014292089 2.576923696549971 -0.6134942723828003
H 4.86714643672775 2.1908349676307464 -0.05711285483054011
H 2.7570015171027626 1.0291595041057715 2.4720305032692744
H 2.5030142525859005 -0.6698892548070403 1.7711477834307254
H 2.9240233777013316 -1.1271502024534212 -0.4481720841545785
H 3.6722888669176963 -0.16540843052410248 -2.546291552753533
H 5.2768897420598595 -1.2597404652520168 0.1642560439778166
H 5.664861831857991 0.1518034577995947 -0.8263401909259139
H 4.812109160656111 -2.4486758545156 -1.850520737423677
H 6.1224689345252 -1.564855276318669 -2.263149203518106