14

C 1.0160202343362401 0.16203959783514102 -0.22099841150002295
C 2.47788684901044 0.03055473815535068 0.07965403986928489
C 3.0276937860018296 0.4294425735377796 1.217278943059001
C 3.2912183764428984 -0.588867795942205 -1.0415506725136627
O 3.2527588262901936 0.1852822264018198 -2.2153917223222046
C 4.677118912494471 -0.8896335235628218 -0.6465159169154299
N 5.766662094326591 -1.1034368603416222 -0.35112460857136546
H 0.4991473456266595 0.6904849019835269 0.5744596996354628
H 0.5631114693954294 -0.8301775009575353 -0.34413590731563276
H 0.8647093669582506 0.6943080115093305 -1.1691474745378743
H 2.4291354205884916 0.8887810409601694 1.9970216269844963
H 4.0940968707457035 0.3112532313304663 1.415835302231385
H 2.827961741242584 -1.547332308281951 -1.3179395775619862
H 3.634780278256505 1.0451603439659567 -2.012323772290998