16

C 0.9518206596624458 0.0803722603654026 0.04100122241825062
C 2.4784839223937114 0.06468634710452012 0.008144255092027413
C 2.9934606676885847 -0.38931759565934904 -1.361546771601188
C 3.0093211479216624 1.478394422374161 0.34006878151203607
O 4.413706006660442 1.5610489544805828 0.37707833286864584
C 2.9882510721893087 -0.8424799633612272 1.0355750148788023
N 3.4234869654270907 -1.515243683184591 1.8696229462262541
H 0.5817581767984025 0.7882656981987645 -0.700898357518499
H 0.5790919085859427 0.380051371842297 1.022361244070668
H 0.5442320876242861 -0.9102255760855164 -0.18365898257054933
H 2.5870045981634435 0.267777245266628 -2.1295868430560514
H 2.6845440847375426 -1.4077431267331597 -1.5796319892816983
H 4.084736143033273 -0.32558417565329445 -1.4028056927146624
H 2.5626875053743294 1.8140463008908079 1.2893877620991447
H 2.677464889519548 2.150834197190242 -0.44954223899843965
H 4.724820024753557 1.0583131533307297 1.1361922273446108