14

C 0.9046124140776123 -0.04873036569400689 -0.1161592683857383
C 2.4325317587858235 -0.053613156097670985 0.020970027753899244
C 3.0826485979319287 -1.010736601522073 -0.9696604363729653
C 2.968886116611198 1.3437002669976064 -0.15903472585757578
O 3.5710307310667617 1.9743452523996978 0.6598344427816815
C 2.707102616093634 1.9476404341549916 -1.4888099148780543
N 2.5023747178197824 2.4008103512764256 -2.524369772898967
H 0.5216254510918705 -1.059477690108033 0.05589624667890011
H 0.5989637915356248 0.2655900891998 -1.1122143599054823
H 0.43808323900322127 0.6124468930202779 0.6134902133107785
H 2.710034475510826 -0.32555084784142185 1.0453975495750996
H 2.8496673276861877 -0.7238172286762694 -2.0012969267913
H 2.711098208416571 -2.0140145000459917 -0.8094416599373885
H 4.174388393697369 -1.0236276242977111 -0.8641228255470931