14

C 0.8765941920079748 -0.04078026150629832 -0.012278339652182117
C 2.4015747464371873 0.09342630624305535 0.03703083166627525
C 2.855028665806752 1.4169451246002422 0.648639270452829
C 2.6467673205395457 2.599119958057824 -0.26902398747759565
O 2.2810844628721 2.5172789620270875 -1.4090233105923817
C 2.992153478473295 -1.0190286657143819 0.7762163827168266
N 3.4495957958163124 -1.8806519162467665 1.3850045838303664
H 0.4539733542774731 0.7686499833830532 -0.6112684307152035
H 0.45292820327124755 -0.0022629046174372407 0.9872808574308376
H 0.5815068946193921 -0.9871701865459699 -0.4608899514355998
H 2.788565488002442 0.040857625988529656 -0.9822152210541244
H 3.9196918478973193 1.3955252198869326 0.9005182013187372
H 2.3362330678422323 1.6238037014485256 1.5930936350024727
H 2.8931600776709194 3.5758462414478416 0.18584039322754892