16

C 1.3135263599628197 0.9760891172483986 -0.15557036119729478
C 2.4863888793473716 -0.006387458767969971 -0.10472381714930418
C 2.1338725684241715 -1.280174059493092 0.6647339348859937
C 3.298927069941409 -2.2186468525884124 0.8490998386359526
O 4.281656106614029 -1.5456946363020285 1.6146779020854172
C 2.948843083216063 -0.3304966185928973 -1.4505738285556813
N 3.2935393237989063 -0.6001498804254202 -2.516355667817035
H 1.0282145524158293 1.2520163149328154 0.859278179781306
H 0.4529426046016035 0.5343612573013574 -0.6503610477776766
H 1.5850965978167793 1.889359567359065 -0.6863430986846852
H 3.331188219504694 0.4623075405582438 0.4089795949456801
H 1.3322033484779312 -1.813066319125402 0.1459441928895329
H 1.749301528569438 -0.9939066715238292 1.6505342312994071
H 3.704005247641554 -2.5111081700378644 -0.1322402323491237
H 2.9626169110352003 -3.1308423844279556 1.3650046177163937
H 5.08882970455289 -2.0661410127153665 1.62116666324832