12

C 0.9037942297468374 0.01470316605388579 0.04640553390786473
C 2.353318281048066 0.02986674559841423 0.051752607550869995
C 3.5552321247143683 0.05142435574021779 0.05909574172004316
C 5.01193328432152 0.07996474591699927 0.08604413730436909
O 5.544809957427501 1.090745970670178 0.9046308657506998
C 5.537289735018216 -1.2460456272885672 0.47388041054018504
N 5.965477614327972 -2.271260681022672 0.7868775728997984
H 0.5018860671406511 0.8645123643677936 0.6055282922330445
H 0.5312607875066815 -0.9082538899236214 0.49698003585923844
H 0.526958008210224 0.07773438281398877 -0.9808762771280012
H 5.394553451054415 0.29043718891610537 -0.9162288512791278
H 5.142945680942859 1.0233467799764828 1.7787011148231031