16

C 2.96633232607198 -1.8612610724499832 -0.04511835750331239
C 2.5196717371118726 -0.41142332759005235 -0.1401437902427774
C 3.0903881824061936 0.40182512999924663 -1.3147987423416554
C 2.5093310736049337 0.06548023190172547 -2.6864424931988555
O 2.8244408539668493 -1.2589913768455268 -3.045062888331224
C 4.553024236918996 0.34074618075909907 -1.3483783870623691
N 5.695425583700002 0.3146023682631357 -1.3588192426266004
H 2.538241682173151 -2.317199359960031 0.8543548710105453
H 4.046816591018081 -1.9303868294046453 0.028185490517271667
H 2.656026006563803 -2.4393664099465053 -0.9145363311606758
H 2.7885314650886137 0.11553109732538838 0.7785256506836221
H 1.4241348472692608 -0.3463412304143716 -0.21985097230111164
H 2.8368295313405634 1.4572540059530916 -1.1398784968524396
H 2.8962305720530535 0.7793042195938482 -3.4126119020139
H 1.4215755680695064 0.2061519086229862 -2.6211519205806653
H 2.753014981078897 -1.3467460179123827 -3.9959635199856027