16

C 1.1671214468659175 0.12832860512189198 -0.4494263212928857
C 2.680916989000069 0.15464899087638326 -0.28932230845895546
C 3.1412982118164128 -0.6030959481164194 0.9425620571368576
C 4.653994743964099 -0.5686588286519705 1.1579928799460093
O 5.054785413133855 -1.1414969063093454 2.3761082992659497
C 5.3531801205970435 -1.2134807666331315 0.018782748861332382
N 5.877168299658658 -1.7417508831725679 -0.8462480402175252
H 0.8561032515986099 0.6724100177556136 -1.3386382647573896
H 0.6737528487210742 0.5763014782976522 0.4109416702838603
H 0.7951479685434263 -0.8991812611107597 -0.5389776603823823
H 3.0236308827169434 1.1918157383811259 -0.2362357800847255
H 3.146694995754748 -0.2793324310191749 -1.181277631890707
H 2.816768776186798 -1.6406938356649003 0.8965511762486073
H 2.6989228114342785 -0.16059367450587728 1.8406833976889152
H 4.992933462614692 0.4681688865367601 1.196782370864086
H 4.801560191410746 -2.0761789769447514 2.376854620962345