16

C 1.471718513340999 0.8925481823004748 -0.5585845416576606
C 2.2664712409100702 0.049307279482802294 0.09572123314509765
C 2.9630540860199943 -1.1147472108266334 -0.5285203736005004
C 4.468374421719379 -1.0788723224166041 -0.3537986818228861
O 4.750120095584583 -1.2010995366456796 1.0363160562656828
N 6.105072777787779 -1.1296477398368636 1.245684164483356
C 6.408149015463899 -1.2490654142964601 2.4680312278098064
H 0.9898849619944748 1.7233163739186521 -0.056510812841966455
H 1.2817243196776096 0.7793018068456714 -1.6200830216929296
H 2.432232142234759 0.19735055207527236 1.1616648426243987
H 2.7412848546538577 -1.1534852496638255 -1.5960675492113052
H 2.6002111149315428 -2.0420415296995613 -0.07769511786686799
H 4.889298146393547 -0.12969456309046257 -0.7251229066570918
H 4.94574998147353 -1.9060446049656303 -0.900777086996593
H 7.461630828834291 -1.2047036947240097 2.711703000644839
H 5.664205933644042 -1.3937534360572235 3.245522065893084