16

C 0.5499445224979014 0.014081002980550018 0.11361746794340355
C 2.0236867615681446 0.03243572669107688 0.3129932926410023
C 2.908249089454319 0.6121968487407964 -0.4941533953663408
C 4.377775315010601 0.5602183171820049 -0.2806063488055763
O 4.855940745951457 1.9027521980271789 -0.20197070717309046
N 6.229960240756191 1.9132320258502329 -0.26975687894776673
C 6.7011650587229035 3.0836478478351848 -0.14206091029613546
H 0.1798846456599154 -1.013850205552487 0.023541381062484334
H 0.26729160284608566 0.5596334932367493 -0.7898112608759813
H 0.03478502043930776 0.46441230093589353 0.9673594640268819
H 2.394794380665715 -0.4799188559789715 1.2043257174208835
H 2.5661597622120724 1.137224704487475 -1.3740934437140297
H 4.8859613657148815 0.06384274589813559 -1.1136297721397714
H 4.625731902195906 0.02449435188341275 0.6406224060518008
H 7.778842373420537 3.1686655516980986 -0.18757659928623885
H 6.073646710706586 3.9601994356094266 -0.0018025433023740305