18

C 0.9818356661612702 -0.148681135403929 -0.043740216612765455
C 2.493582281288646 -0.29985643557076685 -0.07662499857205615
C 2.9410685491586603 -1.5260988640866011 0.710493964488797
C 3.001578492998738 -0.3208614876810934 -1.503950879775033
O 2.9561543949072937 0.9052066349291511 0.5891813850205739
N 4.314716236683084 0.9542596810797095 0.6544603989038575
C 4.728292894732853 1.996219068869711 1.2403484689221709
H 0.5096895010683029 -1.0090939460598565 -0.5221328777645139
H 0.6709083726813743 0.7621144574950935 -0.5683405710003447
H 0.6291415636406054 -0.08046962254699777 0.9876303083918685
H 2.5376569577631836 -2.4235061248476155 0.24311712691348694
H 2.5695512527391897 -1.4730034471695341 1.7326563536200248
H 4.029425180780153 -1.5850188696333523 0.7219375116115639
H 2.609283955176022 -1.2029164570350521 -2.0257619534377502
H 4.099184426296379 -0.3738187152146438 -1.5134379025655014
H 2.692162815797558 0.5736650007105479 -2.0417032763310217
H 5.809540698505668 2.1074049324578326 1.3255737853710914
H 4.063393199635799 2.7581669462351948 1.6284266829341791