20

C 1.077350061335705 0.3010520716142035 0.12865567626577748
C 2.557150156042356 0.12550414903036192 -0.21526091122192154
C 3.059389761275755 -1.314546170456189 -0.08575795182107968
C 2.407506534026294 -2.251174987393748 -1.0967116682976847
O 2.9396998467485216 -3.5487384009279466 -0.9911901493290286
N 4.501337018639047 -1.4484031764166583 -0.2419937040832132
C 5.299736431269857 -1.0389958198959883 0.8901321541918531
H 0.8036882435793035 1.3640022088253707 0.09824122381753511
H 0.8646019537107725 -0.07190971764360758 1.1301312523144602
H 0.43589676138889405 -0.22734820235120576 -0.5739570575336055
H 3.151068828515832 0.762580431007281 0.44119533806746947
H 2.741560321886912 0.47334393895698534 -1.2423808999943753
H 2.8208086648722364 -1.6878811800633058 0.9114343794114591
H 2.56194282996126 -1.8510376001372144 -2.1086420242413086
H 1.3357062556550132 -2.3221452803682534 -0.9290206124098206
H 3.884537221226141 -3.397035613008717 -0.7982020178370907
H 4.797577714943296 -0.9614091189817277 -1.0772161855626594
H 5.063604983612156 -1.6701878245545996 1.7529858128053928
H 5.146861327605961 0.006172125548560013 1.1950114451802185
H 6.356339783450527 -1.1727342059605088 0.6607972327061411