15

C 0.9167230043673541 0.11446913966000292 -0.0975726020012626
C 2.400819299649948 -0.10155720371864489 -0.08280413027513943
C 3.018731788299278 -1.088425402145364 -0.7206549419165429
C 3.158622414716134 0.8546932785703086 0.7878295849291882
O 2.6909315062701102 1.3049030392420802 1.82094322857029
N 4.414327107484929 1.1775610028373253 0.3619035268369036
N 5.185309394848036 2.1135608393499243 1.0353705395661885
H 0.6639600911512686 1.092959188275377 -0.5125520741088614
H 0.5408558603562044 0.10400066188136677 0.9309026192492249
H 0.41518958948246965 -0.6582388639936498 -0.677388957900799
H 2.4605972762239547 -1.7975180989333 -1.32093952272122
H 4.082361565194727 -1.2513872564256758 -0.6330247742163967
H 4.663803075273113 1.0133477461913876 -0.5977332716275338
H 5.575626122013235 1.671135957313949 1.8586089627430622
H 4.553509350050773 2.8308103968647442 1.3845819538508848