17

C 0.8830131133217555 -0.47841096241042247 -0.06097029298111939
C 2.341190924628605 -0.03511227159794124 -0.00644280944369701
C 3.262600632954536 -1.1082563336727085 -0.5658451132639456
C 2.5087574172536944 1.2419584361451022 -0.8057274191092177
O 2.2679439177547134 1.3151603273233006 -1.992718578583837
N 2.9412576632854552 2.318190485784834 -0.08969101635465113
N 3.143504086752195 3.564207281713733 -0.6716170324886886
H 0.7436272463502839 -1.4190542306577505 0.4849037210080616
H 0.5813007032461439 -0.6267793273985486 -1.0997107086413438
H 0.21537579802775136 0.269058844103084 0.3857259876942975
H 2.6082336698934077 0.15787829915302942 1.0430866655236435
H 3.036426048922451 -1.2778342125170798 -1.6185062630934723
H 3.1405896677997385 -2.04612086868547 -0.027869888147793464
H 4.317796987046254 -0.8117098359288877 -0.49890855267827283
H 3.134555288061981 2.2482251619954132 0.8906362110174237
H 2.2758148269664638 3.8632156815506073 -1.095896824165487
H 3.8139360243347844 3.456965326559729 -1.4292692211861462