13

C 0.9976570875528726 -0.04628334231685122 0.08822526558956603
C 2.441854651103542 -0.03311551616839586 0.14113588414612754
C 3.645760206369874 -0.033761671911228426 0.16557568406664241
C 5.096632273882842 -0.0874671531609364 0.09676569148385522
O 5.694340224639264 -0.6093877874650819 -0.8279199807167733
N 5.742193694041391 0.4939107670826721 1.149759933936793
N 5.1499721922526485 1.1024208231136734 2.2464605425882853
H 0.5599245978118327 0.4814450230254718 0.9450474890095379
H 0.6264469556553328 -1.0722273850783908 0.08842985769393583
H 0.6446981270195006 0.45011069269991694 -0.8257838694619904
H 6.743688599749071 0.47360003760374547 1.134332569356282
H 4.559894169977402 0.4465555641304613 2.739041235779043
H 4.574140598912633 1.8843963192155966 1.9396265808880715