14

C 1.1123648597592406 -0.2210065922764304 0.05237702730976821
C 2.5083031368969904 -0.18701612590092478 -0.46191660572938914
C 3.5988679583457444 0.32029294323136487 0.4443074347120354
C 4.260939756061306 -0.8360280650217929 1.1617345535823465
O 4.2839849668689105 -0.9604916187908318 2.3527499313294165
N 2.707909868943061 -0.6171588211719542 -1.6431832621958797
O 4.0515916682285145 -0.5506657357597424 -2.0129446482303748
H 1.0542595707115199 -0.8042022655014738 0.9767392006737862
H 0.45010031805706696 -0.6535392543093642 -0.6868148730533487
H 0.7685676020778228 0.7873343373924748 0.3004041906334513
H 3.203949127735964 1.0073777744474133 1.1912711312754163
H 4.363944796594482 0.8221834361082042 -0.15884481631998396
H 4.729792996543632 -1.5888110572384786 0.4868361576639842
H 4.032961825725177 -0.8585511489892683 -2.923750174457082