14

C 1.0852309735936563 -0.03595590641226491 0.20012530831217593
C 2.5730648780257446 0.17288508335280975 -0.0923803448377732
C 2.9062177680637458 1.5865452564029305 -0.4240816773737333
C 2.9432632217007253 2.5921061653538877 0.6729666038662043
O 2.7835293292060705 2.283862075978833 1.8227024059667998
N 3.1354428889735084 1.8700028678597447 -1.6520027882742765
O 3.4208082410505334 3.1901718945328708 -1.8916560404931746
H 0.8960386068150096 -1.087458055647341 0.44880069634943126
H 0.4813387826490351 0.22568344618714548 -0.6642262450179947
H 0.7726810154569872 0.5734151735416452 1.0488904448467866
H 2.8780942354437618 -0.45715789092232456 -0.930386868909856
H 3.156835680952041 -0.11570590005524847 0.7860903268432053
H 3.1360385984589416 3.6381256932938992 0.379134266010594
H 3.5632543977066304 3.2094309598302817 -2.8436835117547528