18

C 1.21671431585285 0.09377919435499972 -0.17906175875498626
C 2.685253708043833 -0.2556433047693121 -0.04852509994069266
C 2.8499564263099093 -1.6441434993001385 0.5767443077038819
N 3.3001291970732978 -0.17001882993915524 -1.3676848027053432
C 3.327559376473685 0.7590350686434199 0.883759967735529
C 4.54514368818998 1.4990008131888035 0.5714165388819143
O 3.2681328600613715 2.1208710762308876 0.5199467495507722
H 0.6958362053135129 -0.6457280764677743 -0.8090520518839154
H 1.104652642222716 1.0759950950126034 -0.6377787013570666
H 0.7247852407631241 0.10682435799898198 0.7965742659572819
H 2.3802035239782113 -2.399098964072863 -0.05531482033465106
H 2.3866437860912764 -1.693302595344114 1.568546963824148
H 3.915412742838991 -1.8955075309191025 0.6918955842143529
H 2.6757896883238588 -0.5542963850834178 -2.0718952834189683
H 4.153628752506241 -0.7080542574426971 -1.4075209450591064
H 3.1069794646541675 0.5817401825890867 1.939543245900115
H 5.011266094262291 1.3624002985112642 -0.4022495395421123
H 5.192015453111312 1.8353409466044943 1.3800853784179674