18

C 1.56070985331828 0.7878080193762298 -0.08166185946687704
C 1.5579771799127862 -0.7363709177428375 -0.10784812758106187
C 2.6376457181213864 -1.376796505182993 0.7452884912545866
N 2.4842781020401405 -2.820455497975592 0.7215648681316642
C 4.016323168373454 -1.0638050038708116 0.22381158861003347
C 4.861049491175587 -0.022814858767863003 0.79200851721624
O 5.092261320305782 -1.3940554276903796 1.0875201736199254
H 1.4617110024645386 1.1711301960456426 0.9343515165644173
H 0.7314906585981436 1.1925034210703738 -0.6673088440490336
H 2.4788490634278855 1.199733931818899 -0.5043309546137923
H 0.5857796920128137 -1.0943453837855168 0.2605604033808832
H 1.6553117062835738 -1.10404373973377 -1.1304089672012076
H 2.5875319713235734 -0.9528167886941976 1.7680368628840588
H 3.1955117453560264 -3.2565527850483122 1.2998173387270362
H 1.5748687143342626 -3.088470425747364 1.106243020231036
H 4.183048737195565 -1.3643040478733317 -0.8207411024562099
H 4.486724149611932 0.5760148448610155 1.612510978552208
H 5.620841573585336 0.4533159449095051 0.17399683762992244