16

C 0.344053070455545 0.30418656037874625 -0.014686597098578611
C 1.826349485479478 0.33287527119928595 -0.28524663837341835
C 2.323940725944221 0.7928247559094312 -1.428432038315359
N 2.586236017205212 -0.17726309042454697 0.7755920982420206
C 3.9476174950884872 -0.31395182945705474 0.8680257742124229
C 4.409789544473323 -0.9152420195377049 2.180886726526981
O 4.717319717245213 0.022242997438474757 -0.0034743107239811498
H -0.0783663321307443 1.3092903840372754 -0.05801386185323125
H 0.11379486609278597 -0.1069842328470008 0.9649561908920533
H -0.17469733493591696 -0.30688498144438997 -0.7579017687438324
H 1.6405976016401027 1.1652992402579432 -2.1728585224944594
H 3.3821899499758286 0.8128387400724472 -1.630192858545926
H 2.0653833936342516 -0.49963330002264705 1.575521556041101
H 3.994653759899473 -1.9085572264766184 2.310291686587642
H 4.100023663812618 -0.29206050001410166 3.0171459453148124
H 5.497607675557771 -0.9755136839726748 2.1688301622993227