20

C 0.6509377002743408 -0.35537461105740553 -0.3896177948425259
C 2.0420139642739974 0.15236400195029054 -0.7220195313226445
C 2.0535027154354406 0.77926012067505 -2.1079113939182292
N 2.440936136912033 1.1259664413480397 0.28987074383799205
C 3.861041799703747 1.4222323059021207 0.352380838147288
C 4.074365752023486 2.6085074581670433 1.2710211039750394
O 3.327230513920189 3.7210537019616248 0.822058250138626
H 0.3125154042896465 -1.0821397319409127 -1.1218620110360495
H -0.06547598702604789 0.46442955802645197 -0.3690297927044669
H 0.640179919707808 -0.84684153028064 0.5958988314412037
H 2.7281501161530577 -0.7083676897022885 -0.7309579593207631
H 1.347880980667932 1.6168297884215799 -2.15918654196057
H 1.772038775896118 0.04702107052534145 -2.8684524859002387
H 3.038701597092637 1.1585831359260876 -2.3801710701169285
H 2.1282862926248924 0.7973317404301004 1.1921276697731378
H 4.216419005705159 1.6852371456115858 -0.6489063224967283
H 4.465786845490397 0.5682719926971687 0.7060138009568147
H 5.122917715017967 2.898688965986441 1.280719757114129
H 3.7906124600770257 2.342288232937691 2.3039017052435327
H 2.4937152402346743 3.3493458429512764 0.5043714126764711