18

C 0.8366385681340486 0.25509584875130475 -0.21211918731158066
C 2.3394332874793013 0.15451809129144095 -0.0068486490957053985
C 2.9831034147815885 1.5302418184546855 0.12113138605785807
N 2.641214769741248 -0.6674413266547026 1.144932289654751
C 3.3377338099908376 -1.8256899835669127 1.0840093249898617
C 3.536768147995366 -2.52233683886909 2.405969945790107
O 3.7667600001714834 -2.2818879124140246 0.040327809960922
H 0.606455857100596 0.8457097505446655 -1.1067027178596238
H 0.34623693536424544 0.7466999079263532 0.6381076909272037
H 0.39447901903557114 -0.733094768013218 -0.3368792011834485
H 2.784867800155199 -0.3734858300281582 -0.8471501339558719
H 2.5923102137804586 2.0744743218885713 0.9849804696993223
H 2.785103391551579 2.129682127373467 -0.7614431086315009
H 4.068591322223768 1.4351414975200059 0.2379308679435967
H 2.3197464930553577 -0.3547437695317411 2.0500223331657734
H 4.088194400980968 -1.8795178758395938 3.0966089946125455
H 4.101913031888134 -3.4364176643890443 2.2430703839985995
H 2.579396991786073 -2.763027655934397 2.8737677362123115