20

C 1.9698805314425785 -0.28676416369645014 -1.0450511942402476
C 2.2161360653331323 0.557327295900224 0.19689525335238717
C 1.8629498695792317 2.029277198951632 -0.06662469774013981
N 0.43222433444498815 2.223509603928025 -0.25519744522833243
C 1.4898894427919946 -0.030447481533711764 1.3959239398159753
C 1.7752403626704603 0.6645042591878537 2.7117328025962144
O 1.2009681104194372 -0.006990685032105841 3.820524709211212
H 2.4938662615676264 0.11396145668391347 -1.9222852328310096
H 0.9012880897250232 -0.34737485954634106 -1.2813472357074516
H 2.316874630424271 -1.3144525602187356 -0.8900115792722272
H 3.2964916341244437 0.5388308625097931 0.3982480229835673
H 2.468916749713053 2.372649687909202 -0.9167386575619488
H 2.175036773873193 2.6284349631055495 0.7908034549811316
H 0.13368764502919842 1.8441927763797614 -1.1432069483318532
H 0.2085894183513371 3.207199576149115 -0.2772596268496242
H 1.7731456869285034 -1.0853364127862335 1.5093164962798784
H 0.41463998378047023 0.0012430945341948265 1.2048242906981774
H 1.4397702619171882 1.7130353405979137 2.681280426543169
H 2.8577058990837494 0.6811446006161901 2.9134493978619407
H 0.255441680063895 -0.03836404716636676 3.6817793968554398