20

C 0.8293934850248644 -0.09784209790877339 -0.3477441888388175
C 2.1763268182139046 -0.7889360679423962 -0.3915724525550782
C 2.8332810928142473 -0.9897477601896225 0.9833998632028621
N 2.0309785443863393 -1.7833460863096755 1.9187550671967697
C 4.2213321115768965 -1.6003107915418657 0.8552033481750696
C 4.993064063965826 -1.6377801312280609 2.165274058553382
O 4.438470670312285 -2.5116281102816647 3.115888601336681
H 0.4299132406310485 0.04923365190259493 -1.3526276365369838
H 0.905764310195385 0.8843041283361334 0.13137415831080648
H 0.08789964736223661 -0.6791029335959633 0.20965045543804747
H 2.8604072139178003 -0.21792725509358574 -1.0131546370134843
H 2.0828915380036412 -1.7740089982598635 -0.8682851865495748
H 2.9481591089227708 0.007021075502448308 1.4453181280260894
H 1.7875867151498257 -2.6758604620295685 1.489584596938388
H 1.160642723945921 -1.313715401534735 2.152456738672527
H 4.801147569839632 -1.0212379665728333 0.1321589877983696
H 4.140583709849999 -2.615389461592935 0.45757630510931446
H 5.079871823579374 -0.6207483486068383 2.568558586039579
H 6.0187762693465015 -1.9913878437105652 1.9793501541261525
H 3.4809999601148705 -2.3410446025936005 3.090014916482461