18

C 3.2035937008167967 1.0721382004309954 -1.0568463525668264
C 2.695756483236002 0.055896695764439876 -0.047994597603158926
C 3.216806953498787 -1.374700938046404 -0.29602211476560586
N 2.8931568058676493 -1.8571829556458885 -1.6104014641350297
C 2.9016962824999384 -3.305375068354637 -1.7234395823304296
C 4.6962769006396465 -1.4056259794835202 0.026826355722584638
O 5.564460090260605 -1.6359308836291997 -0.7762595115622947
H 2.810569197816568 2.0617959367598475 -0.8287107376533986
H 2.8825849483516963 0.8148528923198856 -2.059863735743357
H 4.294034672884327 1.1437700799481978 -1.0509724342932347
H 1.6087788218255863 0.006991862744523311 -0.08498918579615172
H 2.973291175600256 0.3539049515884576 0.9729620449445948
H 2.728419232390159 -2.0236967913253103 0.44384791665032775
H 3.5560076002870287 -1.4743157834252651 -2.267235211659847
H 2.1090942390743215 -3.723493912213673 -1.1037215202057475
H 3.8517712871345946 -3.7726411324142353 -1.4198567451784718
H 2.702194116654505 -3.5904443022605577 -2.7583947835940603
H 4.954097017894257 -1.174804371279816 1.0852141149970085