18

C 0.8097083147976089 0.4343291840284115 -0.32581626908797684
C 2.3134988935142795 0.245966799680853 -0.2137732256341553
C 2.6898691222212063 -0.8938388131708295 0.7118698898890754
N 4.128905285210259 -1.0715182634868987 0.7666582093371355
C 4.564680125742708 -2.1152439937117196 1.665052741721466
C 6.024356566444797 -2.43149613892192 1.4626112930255488
O 6.761651817397147 -2.822814023721261 2.322754192107445
H 0.5612823051883963 1.2531380862891504 -0.9846276748114233
H 0.3653282724352318 0.6457730936409487 0.6530527134661612
H 0.3231810412675175 -0.4651145846866359 -0.7086597935837498
H 2.7687229766468113 1.1723355649864247 0.150563765415339
H 2.7408560450506463 0.053951490020494576 -1.1960851684793103
H 2.25175371424795 -1.8296250657274473 0.3505807832675782
H 2.2582258094568575 -0.7069045066694112 1.7081933311098614
H 4.56655277516651 -0.19068091101640267 1.0261935367656911
H 4.021704007124365 -3.029537566166762 1.403479775483954
H 4.388014048960436 -1.9332684852229967 2.728128610714878
H 6.3781948960099015 -2.300004715797322 0.4142700842546645