15

C 0.8469727174381775 0.048914037969928006 0.03783708830099312
C 2.331371784455318 0.2118741121420383 0.02799219163262691
C 3.144896056614918 -0.5239047934268097 -0.7152971571931309
N 4.531892626672607 -0.38814681547670193 -0.7465549919181476
C 5.327299534351778 -1.1864107537759996 -1.5375822363437515
N 6.6616422477515345 -0.9211659633584074 -1.4475892311842165
O 4.882971912891906 -2.0578759580380166 -2.261689544609747
H 0.4779136348703014 -0.20052328925145008 1.0448155934013672
H 0.5365797823159268 -0.7479493794129038 -0.6368343587673728
H 0.3404978707620786 0.9670232510988591 -0.26713856665394387
H 2.7486517258813157 0.9846749110203578 0.6714169345721352
H 2.788178920265915 -1.3145827276382798 -1.3727917264261043
H 4.948495468609629 0.30986474880885784 -0.1660911219956692
H 7.045094666729398 -0.20654847823710817 -0.8614541811488047
H 7.27144310654194 -1.4813576532125032 -2.011967238996205