15

C 0.9689427104491531 -0.0029354720746338136 -0.06840055754302443
C 2.449494444875309 0.06623802400749447 0.1559275459823375
C 3.0548112531831504 1.0337641155651132 0.8815346702648347
N 2.4670573003834892 2.0805249049732857 1.5214363241846942
C 3.242924040585764 -0.981636341528827 -0.4709587927464884
N 4.513551507838476 -1.0748059891212114 -0.3750088844015763
O 4.979825807752031 -2.184400255731912 -1.0723640395525382
H 0.434531744568559 0.8123622015227643 0.41088990019868243
H 0.5508503292296595 -0.9315642830832576 0.31404342772178784
H 0.7223297017620527 0.05449499287837417 -1.1434115776505964
H 4.130566198458938 0.9955926919649505 0.9840088726920374
H 1.4802797909106724 2.2251273623869703 1.5070724080817095
H 3.0246573488473185 2.725736848636644 2.0323066206330402
H 2.6993439057752617 -1.7356679739474223 -1.0425838851317675
H 5.929448741600868 -2.1449629483253645 -0.9244179905489315