17

C 1.076415967980691 0.12224206109222527 0.18477696472314847
C 2.599539378638803 -0.028039416486155166 0.22213116465963095
C 3.067024471494698 -0.4321165270586945 1.6238223829060918
N 2.9635389404229575 -1.0880530511222244 -0.6932925783883095
C 3.268932479732727 1.309609947578281 -0.18188850866510625
N 2.994977673179281 2.3801112413346046 0.5918641646173007
O 3.9891326705223977 1.388717578282206 -1.1521657644708558
H 0.624641506137734 -0.8385180906674968 0.431664141208199
H 0.7389256172351183 0.4187383578001475 -0.8040251619992631
H 0.7194224385451027 0.8678991137340877 0.900228250235031
H 2.6265617033857525 -1.3969939687551063 1.8798617926280998
H 2.7696893077141502 0.29723196814061653 2.3839202200440646
H 4.149570650467556 -0.5204808886862624 1.6552194371837659
H 3.9706248372927586 -1.172617230093015 -0.7114915720643107
H 2.7039030695151576 -0.8171473351321786 -1.6277252819850683
H 2.4014975935311673 2.330696896863322 1.3950904544859855
H 3.420891210894945 3.2659512183163772 0.34742844230169445