17

C 0.9335089015875617 0.16735463968189795 -0.02273046581588811
C 2.453537059189488 0.06060927218321925 0.060247445301501105
C 2.976724907166976 0.4449158641174666 1.4333447975530103
N 2.8652950406492117 -1.2702386145288063 -0.3394816597266916
C 4.129737802572781 -1.4929007153842815 -0.8079166715794498
N 4.448579923333773 -2.829837879564158 -0.9424280859471792
O 4.907394072132407 -0.6051970187872887 -1.0762277589010714
H 0.6025706919598899 1.171122765730204 0.2315996997742454
H 0.46377301196214044 -0.5203849362776949 0.6869059417003691
H 0.5812157338852302 -0.07426634619419414 -1.0226045825847327
H 2.8990640663840654 0.7350178899078442 -0.6863854576984955
H 2.5705263172464248 -0.21176575332977354 2.2066636490698732
H 2.698916640270851 1.4700353349407682 1.6853363412127444
H 4.06519397342776 0.3716622360516379 1.4516923011894418
H 2.409198185979646 -2.0346519962508722 0.14749374022538128
H 3.709909127402643 -3.480587859131522 -1.152895198496083
H 5.2868138479506435 -2.976832073418619 -1.4829437491868058