17

C 0.7963531898875895 -0.015679060545388736 0.012267950789223415
C 2.3036434008729127 -0.19383111509971004 0.13941896322522457
C 2.9377811181861953 0.9367736943839622 0.958011045754065
N 2.762389745524039 2.2148752629611894 0.2926877773015875
C 2.6012964674154335 -1.5173477724532545 0.8279201907702719
N 3.123104684645417 -2.4908363175300967 0.04235533348179757
O 2.3685002600854004 -1.69530593694246 2.0012452938726044
H 0.5819370599667556 0.9840896288626634 -0.38519342615234176
H 0.32271483825493086 -0.10972858093943284 0.9980137426707235
H 0.35648938843490374 -0.7614602613876026 -0.6514663474939839
H 2.751550843667251 -0.19482394223156632 -0.8550211629692605
H 3.994314674914225 0.6837214468485718 1.1530051578557023
H 2.445457065809875 0.9635077421395702 1.9329649522826025
H 3.3971810393467057 2.307900036727385 -0.48895580053214593
H 2.9592732259664865 2.9763273035669595 0.9244902728498233
H 3.2666082170371897 -2.350892088416356 -0.9445149793450469
H 3.282157166507494 -3.3926345073776334 0.4319566239223009