17

C 3.031683537398966 1.429275555605757 0.9150168329700301
C 2.975218682669628 0.624512308495672 -0.36570280007797173
C 3.425544489304021 -0.8283122105405487 -0.2313470918653911
N 2.9306624557328482 -1.7327357236813217 -1.2763369542488392
C 4.9548518159342265 -0.9420339792670307 -0.12407700992367875
N 5.443520292609656 -2.1366314720588644 -0.5417590076736875
O 5.654301336025269 -0.05508280626804981 0.3186325172684206
H 2.6480506622132065 2.447288640738006 0.7550910157001329
H 4.052327433379452 1.5003766254312991 1.2921685302322865
H 2.4133600177574372 0.9630392787122697 1.6956669009410816
H 3.5719390153470276 1.1210939275151417 -1.1381198170305868
H 1.9406440187045313 0.6076887412297642 -0.7452136032938167
H 3.058139505048568 -1.2174842572161295 0.7163041855639157
H 3.0786947417028125 -1.3124983282571159 -2.186534777106378
H 1.9369257578601056 -1.8707914739605962 -1.1677805100368155
H 4.812103536305947 -2.797206376847584 -0.9613879556562988
H 6.435283695847983 -2.2998739321433197 -0.49369375212319005