17

C 2.266506454594704 0.9048343215157146 -1.3103943622357364
C 2.511607433830643 -0.09358690863423309 -0.17700869932355903
C 2.90692666911089 0.5653467383102542 1.1070792600836556
N 1.9937148960263755 1.2887484889058505 1.8160393425742236
C 0.5702068854225548 1.0328158984347822 1.7493092990378785
N 4.141819377676539 0.46599052378528005 1.443976424375076
O 4.375909979092791 1.160999494266753 2.648397305350039
H 1.997172471964186 0.37624663491593724 -2.223985307547012
H 3.1712299240723905 1.4779131560615821 -1.504349435026007
H 1.4683886857498554 1.6057889760673594 -1.0693504133251774
H 3.331736439791741 -0.7675136855600421 -0.44316151244591917
H 1.628111341182454 -0.717953018829538 -0.01683501458120774
H 2.3541660874232844 1.610279658732735 2.697101844503531
H 0.20964628767971388 1.0809812440116335 0.729908820991449
H 0.05813716524969391 1.8165904984557906 2.3159432283292922
H 0.27953481968092875 0.06833339656845756 2.1693903490155386
H 5.302922710847032 0.9805638081397536 2.8104715494687205