13

C 1.0154432771464992 0.24637707076365256 0.1667860654703428
C 2.3244454490357533 -0.03278165429336877 0.09860351830213795
C 2.8924274000197636 -0.8793869305359651 -0.9201387410168759
N 4.148499334390368 -1.1172379271145256 -0.9411007433032467
N 4.619417225612458 -1.9187593955316624 -1.903830723794765
C 5.959042268314051 -2.2029016364278995 -1.9707756596876402
O 6.433451194540246 -2.9132861555809852 -2.826357708983041
H 0.6196562032292551 0.8896376111374178 0.9386636086934348
H 0.3141443080199571 -0.15909803344308784 -0.5548224599253194
H 3.0195362460659334 0.37564615704185383 0.8179902550049187
H 2.219367240272761 -1.3177753784798998 -1.665697128762748
H 4.004770217783351 -2.3181789550770286 -2.606118542035981
H 6.517755503710919 -1.7142473561780665 -1.165486714818664