15

C 0.45423086640936744 0.13277435419595426 1.4861348381458064
C 1.5321835897341258 -0.11481874029648886 0.4888608994114089
C 2.801559635974239 0.24559961832214583 0.6661838361699386
N 1.1311365772319193 -0.7620671983707702 -0.7025010930336166
N 0.162747576004333 -1.75964095891737 -0.6045456396520393
C 1.537454476058317 -0.3701479261103644 -1.9428453345633934
O 1.1861485271514007 -0.9052140632840562 -2.9623870027928696
H 0.8423459966451795 0.6870187555803244 2.3355681957738446
H 0.02551270802267042 -0.805888033661055 1.8563489646245692
H -0.3764791071409517 0.6898104975456967 1.0390023170936438
H 3.084909946591497 0.830811425015854 1.5281711439188883
H 3.5774506178818752 -0.009678226719443262 -0.04908777287255739
H 0.6316696581258235 -2.659807729572884 -0.6239221355621025
H -0.3800923552601266 -1.7201209322582567 -1.4610341117805867
H 2.1902603545258095 0.5186544507074191 -1.9072376085594414