17

C 1.3493894177404506 -0.2531351909750687 0.2816005578993174
C 2.8491719429980016 -0.14359498777119606 0.518493787376838
C 3.1588455082272358 0.6747488187281138 1.7612638522558803
N 3.525730236006274 -1.4307045465612622 0.6623233889793336
N 3.4252088716064093 -2.276288470642102 -0.41511713195842664
C 4.486162744646701 -2.5153132638853344 -1.2443925169436179
O 5.60149091744404 -2.0898616672397528 -1.1252772726927172
H 0.9091802933468783 0.7396540884593956 0.139002830807317
H 0.8508155192064589 -0.7163587600530651 1.1299356857628955
H 1.1217610667951672 -0.8312712245194229 -0.6207521064464676
H 3.3134738184974837 0.33788701535725935 -0.34424617688144954
H 2.7306467824290515 0.20058242036856747 2.656111265925901
H 2.724804908055364 1.680699256428538 1.6800510755411322
H 4.233363617271995 0.7730317350042387 1.9007250907187592
H 3.235874146733749 -1.9161658200926865 1.5071005400448503
H 2.5235435788584484 -2.6220596624263246 -0.7053072784508017
H 4.167395933793664 -3.1755144936596915 -2.0750461263260505