17

C 0.8715316485827199 -0.027554189894449313 0.15438843870979183
C 2.3794064717949066 -0.20492927340624917 0.033704567224738406
C 3.1119927065800916 1.1241883793315945 -0.01388412281850383
N 4.552061752869692 0.9853595084700058 -0.06485711565318816
N 5.166537667848396 0.4821759166505571 1.0809425176987517
C 5.302998310818575 1.3439364438987136 -1.1255356063929134
O 6.508773844283091 1.25021365450409 -1.1747740567132978
H 0.36253138965051446 -0.9885034672332913 0.19117232229735304
H 0.47239625882725544 0.530222042787985 -0.7015505997741354
H 0.6086189550155543 0.5189887517013184 1.0634672881166445
H 2.6270914233832263 -0.7832800723011009 -0.863338476029732
H 2.7524008047611512 -0.7760812695215223 0.8865631515780074
H 2.8463520708537318 1.7269926833698197 0.8673140082961518
H 2.8108568169817127 1.690377931661174 -0.89902525603402
H 5.884255653529245 1.1447364097928832 1.3722427738084404
H 5.6690066952066624 -0.36132961521522666 0.8283517095627091
H 4.695079591072914 1.7420721581994854 -1.9573720285502274