17

C 1.3218180229202698 0.40807889907370354 0.2514509618483196
C 2.819237168432496 0.5529155273469603 0.01967988415851289
C 3.1796206200653607 0.4531626159381084 -1.458568620869718
N 4.58659238094853 0.6055169229563113 -1.7809598429922502
N 5.412399225602307 -0.36150636800199987 -1.2634333397399555
C 6.034580903126571 -1.286670134233223 -2.0462162676341396
O 5.997901978955173 -1.3659754568406917 -3.2443664424966863
H 1.07169393622188 0.4852936037030955 1.3092357652347144
H 0.9634741784173577 -0.5656112950747761 -0.11257514397895536
H 0.7595323003852148 1.1776980786793483 -0.288188151500464
H 3.3455222867988486 -0.2173966429036383 0.5877871754889608
H 3.1589948341217817 1.5279723250299286 0.4105772470937171
H 2.6440790564922443 1.2245180173340597 -2.021283003009295
H 2.851076297607111 -0.5104609355684683 -1.8542208967085398
H 4.9433169094654374 1.5245510825096142 -1.5485850536535102
H 5.490669418251499 -0.478993027977083 -0.2568255166454925
H 6.619743016429786 -1.9852373325315744 -1.4135794440915643