14

C 0.9931913427422011 0.015473188950507614 -0.015888032492936126
C 2.524110212329501 -0.037458890605560076 0.009377146288304643
C 3.1725120850964794 1.3167663653421784 0.11181858354604197
N 2.4684777456638742 2.365144913194906 0.12116930440122484
O 3.250647332751585 3.504315145184809 0.211451992227137
C 3.0239389607318423 -0.9038396245838035 1.071565108534341
C 3.4454761938691854 -1.5996065125066719 1.9563843285528397
H 0.6505456253325494 0.6259570510759639 -0.837457571861136
H 0.6212214607936571 0.44055762193217207 0.911298917059656
H 0.5961275538946349 -0.9946972342132262 -0.11573223674032532
H 2.872164105975561 -0.47495468974744803 -0.944146952502504
H 4.262023565973847 1.362736263061865 0.18185699325343233
H 2.59957820301564 4.207341638606323 0.2266195463251184
H 3.802001585253901 -2.2255626277750986 2.731533104062678