14

C 1.0164844681537264 0.09617862440667091 -0.21247383395892785
C 2.5119138071129594 -0.13018041345457343 -0.035802359014070424
C 2.80298823732887 -1.0699239614312637 1.100144671752862
N 2.930437720757221 -2.3471257543044426 1.002256687636365
O 2.7724582375271116 -2.782780147037788 -0.2993593569467215
C 2.9222376674868773 -0.5359484660694613 2.4152219836316253
C 3.0025024752285567 -0.006468476143405374 3.491187563201266
H 0.8370959366423159 0.8055088887628099 -1.027214600738328
H 0.5679006280069526 0.5083592874231101 0.6944480367821197
H 0.503320414154515 -0.8320303520415845 -0.45076278801990904
H 3.013485247734294 0.8172403596271482 0.1774097175310436
H 2.9446388622611375 -0.5454094367566124 -0.949878954951415
H 2.919879175985505 -3.732717877468217 -0.22490922685474482
H 3.082933410299667 0.4433866821598029 4.44797714938529