13

C 1.0654401718444735 0.054489490546153006 -0.11610970348929864
C 2.5860722720047846 0.051936459846148406 -0.08400777866203954
C 3.2299211544070277 1.1283309847840086 -0.9099883738730342
N 2.515566412426551 1.9047376229403463 -1.6006936239674094
O 3.2597284946310023 2.80279949500251 -2.3142658858370844
C 3.0934554545750887 0.13044963308093452 1.2896521811640007
N 3.480395605109712 0.1982948196550369 2.3665480430860684
H 0.7215320709456275 -0.0575145064493649 -1.1402353260623708
H 0.6708452903044269 0.995932802891419 0.27107590332309717
H 0.6756936534205567 -0.769549712693127 0.4893934495397403
H 2.9541834239417253 -0.9145896323663263 -0.4752124022962924
H 4.322344037246864 1.2142094605149203 -0.9006331978601212
H 2.59376989459089 3.3323338555624216 -2.7713988177406663