17

C 0.918981262647358 0.1340011427394932 -0.35321633656808193
C 2.382828241716535 0.10468215715960963 0.035594607110226766
C 2.85551657463589 1.4461906048077737 0.592134239979896
N 2.639006436882337 -1.000706871256394 0.9586408790966099
O 2.0121035378391117 -0.8083720578728437 2.1904499280265908
C 3.9410155889515974 -1.464392974816726 1.0814677490590756
N 4.516336631360743 -1.941812522374993 2.1066846304452223
H 0.7476547050078844 0.891826359556104 -1.1200420445250918
H 0.29303495749057934 0.37363409536322023 0.5068661895229897
H 0.6092344658546328 -0.8307163282819932 -0.7625732621531205
H 2.981916266258538 -0.14488721638575738 -0.8525227728815011
H 2.3056297451184236 1.7012353309390362 1.4978360829701605
H 2.6967893187330536 2.2382718650638345 -0.14109402794769435
H 3.9173169486791704 1.417938332436295 0.833052871004989
H 1.3235382886718383 -1.4857342861072191 2.2065090557491196
H 4.464437194367377 -1.4305596972386667 0.1249752182281133
H 3.9044814988461183 -1.8746461511282573 2.916817894034222