13

C 0.9870616171213356 0.33325107970185736 0.02014265371329837
C 2.4758370705091006 0.028855206542132278 -0.021241949205053463
C 2.762263151768715 -1.3866689229167883 0.3829288144105348
N 2.9245111529012995 -2.400504354167821 -0.3852876396927055
O 2.8275915791440642 -2.068015938597564 -1.7082408384607444
C 2.833885327449381 -1.695214535613573 1.7861106487785599
N 2.877521580510396 -1.8565583276351776 2.925110398635374
H 0.8150139260280337 1.3815021977564395 -0.2499256160962398
H 0.5752661040912872 0.18420566710924763 1.0241418785730716
H 0.4346270902639547 -0.2996302468638436 -0.6729508893269265
H 3.018941694593228 0.6900220793015889 0.6661677028266314
H 2.8774850181791782 0.1789035166012385 -1.0228399904137264
H 2.9893240350456125 -2.901545974740155 -2.156921566093701