17

C 0.8336944854638939 0.0824033570303445 0.04212640704832677
C 2.334261688316382 0.25870825765148225 0.19598406323561604
C 3.041740704439706 -1.064297389336829 0.39632618041044027
N 4.479493603296135 -0.9222441543086595 0.5704477933033946
O 5.092567605786409 -0.5487017981056631 -0.6238306082616328
C 5.175104357087983 -1.9115745443485945 1.245606663189998
N 6.342780759850823 -2.333313197335742 1.049833253526623
H 0.3456433191856213 1.039800656674358 -0.11229999310228814
H 0.39316773043184255 -0.3811081214799017 0.9250204315651599
H 0.5968500195739378 -0.5549137224441577 -0.8165420653648913
H 2.5564494832370803 0.9122201490593387 1.0462077580535536
H 2.7488815891565572 0.7493872202109497 -0.690294539839593
H 2.835648134145844 -1.7460946330390896 -0.4376324225043136
H 2.6714712789328496 -1.5556094046237652 1.3039039363534266
H 5.401218337446566 0.3519037499747638 -0.4739842932128915
H 4.588176527871653 -2.3131720013546557 2.084556164682381
H 6.747533120499295 -1.8827527566323363 0.22549024521423036