14

C 0.5801278561932329 0.028724961404844377 0.3060895992807947
C 1.967516210518253 0.4794917403643763 -0.030284427765508895
C 3.0380886306780726 -0.2768075451524846 0.16146742661758748
N 4.34706891444631 0.11046366145040368 -0.12568836324237695
O 4.564683983234083 1.347385718981787 -0.672466848125087
C 5.4327556859557165 -0.714781232890322 -0.01270794588052147
O 5.388448535197043 -1.8575464945579094 0.38367017104577916
H -0.05383085500268285 0.020070416490248596 -0.580479308352922
H 0.10671888945363864 0.6954842593207728 1.0322036839052475
H 0.5818880869740968 -0.9749588923744665 0.7287352647364093
H 2.082281349740639 1.459434037724559 -0.4741907212461048
H 3.0082050086220358 -1.275697792526915 0.5751930951133396
H 4.514325094038745 1.972778623381968 0.06139519486331299
H 6.350352252522481 -0.19059676771693992 -0.32945371185633027