14

C 0.5889039064563563 -0.479691586239198 -0.36350523729765455
C 1.0409260339439592 0.7554457861533859 0.3322248527385961
C 0.040168038723404076 1.6052423449546191 1.0415143023666225
N 2.2898590901375826 1.000743401934384 0.26230778464798443
O 2.576978581188343 2.1930494627197668 0.9611361974581782
C 3.8914024808739374 2.5244823217616204 0.9298250992137148
O 4.7749456130998365 1.9454269854446555 0.4014193574289369
H -0.16193661187953384 -0.23459037061994642 -1.1206813505792523
H 0.10929317523035699 -1.1631486852866668 0.3521968320924017
H 1.4330971328639626 -0.9870464148749529 -0.8358622506794244
H -0.9631847782228935 1.1717379273335526 0.9563976021743656
H 0.02521858643458206 2.6154048762796624 0.6338124275666125
H 0.29439954929648254 1.6915165117117354 2.10845083510632
H 3.986734637538652 3.46505494861204 1.4953122400456198