16

C 0.8877004091241388 0.25451105653210143 -0.10336754574977679
C 2.3396161348870796 -0.055931525826948686 0.22628636778700437
C 2.9646033021817226 0.9867677592280625 1.1491893822065935
N 2.4519621699492324 -1.3995187420216784 0.7930982660582611
O 1.8373207263826823 -1.600603425025872 2.015634981334321
C 3.4986772771717916 -2.2238468182545517 0.5271970491925908
O 4.291246249648893 -2.0548777064360566 -0.3853116782089888
H 0.8220064832148377 1.2195869478937291 -0.6170513900339295
H 0.2788392294667361 0.320147466839515 0.7970231904807038
H 0.4669477545673836 -0.5055222171121485 -0.7686311307423901
H 2.9244926213865226 -0.12302055740303422 -0.688264078155234
H 2.4423869538336964 1.012670860281403 2.113996258942537
H 2.8917171405764157 1.9781685854359266 0.6955491768973138
H 4.01391658706068 0.7633208424012158 1.321657768694369
H 0.9783649064952405 -1.9764758399108207 1.805287679525087
H 3.524356127596478 -3.0706387156758206 1.2269450755943483