14

C 1.101636996174493 0.49356902518307644 -0.22689096334938313
C 2.3215684141793265 -0.01818525156206374 -0.37846043078658015
C 2.624400991826073 -0.6784626351083459 -1.6658292905371832
O 3.661954431385265 -1.2108099162807906 -1.9311576523549656
C 3.4037699408818183 -0.011710937366368038 0.6267327196539264
C 4.1292845836186425 1.2573875589300503 0.9242334724045868
N 3.259811432398499 0.6431230675423656 1.9249774948961005
H 0.3791987045230421 0.4567443405548366 -1.0390345332525228
H 0.7608970273527675 0.9674901723122095 0.691368407379787
H 1.7839759164023972 -0.6466627567158811 -2.397376903895818
H 3.9786048642935405 -0.9223586400675946 0.6501314228106606
H 3.7915493869399435 2.1462281183272647 0.41278931162430466
H 5.188482742044512 1.2175339803594403 1.1397297257459127
H 2.3808780796946496 1.155865272730288 1.975989932786646