14

C 1.219596647386423 -0.6465933610360729 0.9167691380691592
C 1.312383776083913 -0.6865157346717056 -0.40442079882496235
C 2.573871263464646 -0.6008603806838124 -1.1783998727334326
O 2.553570197655144 -0.7540406126303789 -2.382447493397396
C 3.8618164179001426 -0.3451598716232743 -0.47969943200769705
C 4.96173652613664 -1.3151231510655363 -0.7599385480509945
N 5.000043041779539 0.01195872440017948 -1.3142616312636954
H 2.0846590537943177 -0.5316002130678157 1.5609050458158742
H 0.26531892018281267 -0.7405973833200182 1.4106050690847718
H 0.438778745125835 -0.8193904164449287 -1.0297467373926308
H 3.8250723164004676 0.14951511060765127 0.4830426719451546
H 4.715120934815906 -2.148526953362238 -1.4049384112815133
H 5.676673183492299 -1.523281701763288 0.02590934809099984
H 4.675062587581221 -0.02095002823447057 -2.284386195620316