12

C 1.085949137028876 -0.09708715283654608 0.4335924138180368
C 2.378133756726747 -0.18444255906827203 0.11930752057716566
C 2.9444987483593943 0.6232749157293556 -0.9845189857287462
O 2.2980837297010255 1.3860995567971475 -1.652887099764476
C 4.448224555956161 0.5080911577175292 -1.2523672113882436
C 5.0221653378538065 -0.8113902434149625 -1.019744945644405
N 5.454940052585768 -1.8566831761071285 -0.8326878969992839
H 0.6566539720664971 -0.6740599838303516 1.236237244944737
H 0.440223992232445 0.5690957629358062 -0.12014138845374148
H 3.0452344980263337 -0.8574909454087674 0.6478361702526847
H 4.95427592648205 1.2297817804715605 -0.5919026150167254
H 4.628421888813294 0.8184881274421165 -2.2798439200760274