12

C 1.0603260672687258 -0.014129943719106574 0.024311074552954556
C 2.260204631241958 -0.03482638192583915 0.10653701250089682
C 3.6986994351480345 -0.0732030983058358 0.17068222247533588
O 4.151574135040621 0.7370170600633587 1.2400260594407888
C 5.543920301877246 0.7944894366014157 1.3275244838976368
C 6.165472558736726 -0.4973200157377504 1.6792725596283329
N 6.630991882446584 -1.5106929434401248 1.9342998290126057
H -0.005951543825719921 0.0017943877083220327 -0.044402582345740536
H 4.125050787416593 0.2770704226549945 -0.7803842929273036
H 4.037664242946715 -1.1116233487185885 0.31417453361192405
H 5.787507084035463 1.5229025837621224 2.1036271764751153
H 5.999575794502052 1.142297968644182 0.3868795606940208