16

C 0.7675603126495589 -0.4073262563668899 0.6290594977687354
C 2.1171184382181134 -0.6853079438363998 0.003319641451680601
C 2.4536745575858188 -2.165661049584457 -0.017507514820223592
O 2.0622628051789804 -0.14185455151013318 -1.3166773971092491
C 3.288041073478831 0.03872976286696613 -1.944121213234544
C 4.1391552189168275 1.0407290946731447 -1.2881836958236812
N 4.801426888778417 1.8268091847665289 -0.7674641692931139
H 0.7422723794508718 -0.7729552299069409 1.6638271895786585
H -0.021208015662230337 -0.9057199119357103 0.06498197033785237
H 0.5652177126710226 0.6700182275404575 0.6388153247504826
H 2.890088923451489 -0.1376063370351399 0.5716806702130341
H 1.6962738106960071 -2.708554094641336 -0.5772780600354527
H 2.4747230561174276 -2.553004591324739 1.0061887583857974
H 3.4288029010954 -2.3650176527104807 -0.4590100143122425
H 3.081373619866177 0.3764441366330382 -2.9584398479787346
H 3.8746486753316356 -0.8974893211732083 -2.021585226941879