20

C 1.566268230126658 1.0519247587487566 -0.293131055694211
C 2.5513724568635556 0.12623066176703068 0.4046929691079002
C 2.645260220508305 0.42116915711302666 1.8860327974486903
O 1.4010685001705778 0.10790385352171591 2.5096856598544157
C 2.185959430860386 -1.3395598421418764 0.13053114765177162
C 3.113774242492466 -2.366316187640119 0.7511240486936187
N 4.49224297788637 -2.1626729897382493 0.34580850151796266
H 1.8546304264873748 2.100075894866018 -0.1628293494926225
H 0.5641802092753914 0.938758880432993 0.11095817055745678
H 1.5315435972275662 0.8505115802210715 -1.3691495567870249
H 3.5572534641237894 0.2992601407856077 0.005219659452568304
H 2.880838011661324 1.482489273385699 2.0181553844119255
H 3.4603265226800186 -0.15667224541945848 2.3307674481643805
H 1.456998151355373 0.340406442873856 3.4369319068464175
H 2.176760760499493 -1.484394724243228 -0.9641157890919257
H 1.1723565523226374 -1.5248434827058293 0.4743569762254199
H 2.7240339142010828 -3.368079967467653 0.5031178390746817
H 3.0612619497765547 -2.2844080596537166 1.8403704167495163
H 4.591941944319112 -2.3021243512974707 -0.6541756553122566
H 5.105757476845016 -2.8494557235164977 0.7892263647658121