16

C 1.0752040993470475 0.26398675163088703 -0.23025297081097112
C 2.469013694633499 -0.233643687213083 0.12305580357831067
C 2.612196631111771 -0.5434422421803872 1.6123329004893348
O 1.735962913712445 -1.5509178290631007 2.0589903946417576
C 2.80346396600985 -1.4771183048653427 -0.7142806382397443
C 4.204062778043474 -1.869636731646632 -0.5982612798958837
N 5.309513267558338 -2.152803396082677 -0.5003205477987085
H 0.8185892112149071 1.144447835782042 0.37226662926050935
H 0.3227716669944342 -0.5039762437284078 -0.05457721912372681
H 1.0135874489779422 0.5605570536087849 -1.27984597967325
H 3.195731734706768 0.5411733105957358 -0.10757088148213416
H 2.463937858909926 0.39047514335741323 2.184684657824938
H 3.614359369583815 -0.8979309484992416 1.8286984755875801
H 0.8478088525965153 -1.187585022455374 2.135714537358949
H 2.5858355648279643 -1.2997763286795685 -1.7661725999764692
H 2.1892507425273857 -2.321895725465598 -0.3867168024723246