16

C 1.2522473910634762 0.24584219309284688 -0.013409026280978972
C 2.7421046679094894 0.03833065205483935 0.20073138631595588
C 3.3024464983640995 -1.1723613013595409 -0.5319649687952794
O 2.5806245912279744 -1.8802923762324553 -1.214782240972025
C 4.731222375144258 -1.40543966253829 -0.36611946949136065
C 5.30516569382649 -2.454700533091937 -0.981655373146287
N 6.6031396995379605 -2.8168133764410253 -0.9321542372779059
H 0.9068975063586695 1.129592429818134 0.5387960014088728
H 0.692265034872532 -0.6194260721008165 0.3372717463500328
H 1.019765591644476 0.3825423231499974 -1.0705113532164399
H 2.9801200476920116 -0.07543531296731922 1.258591264044131
H 3.317053420264667 0.9175937017722811 -0.1353466794146179
H 5.306277783526011 -0.722441704702412 0.2624289729064894
H 4.661742419266275 -3.0881782531395428 -1.5832552590389375
H 7.2635746914989126 -2.2979290180825016 -0.39609115089114644
H 6.920225133670174 -3.6313209592849507 -1.428908951596669