16

C 1.6729613108741432 0.7993066535850617 0.34588770320427575
C 3.0873850419111872 0.4024348621842207 -0.028859116779262246
C 3.1756937748780056 -1.015349442827089 -0.5577679534257441
O 2.3783069559771786 -1.2229390291326583 -1.7092021717401822
C 4.62595336105894 -1.461724523132468 -0.8281850651309016
C 5.240438325314697 -0.6690730287213603 -1.8730317081614745
N 5.674044842642335 -0.015883213346521263 -2.7211495637489285
H 1.6389703030169658 1.835240328789767 0.6918673732358267
H 1.2857864064815798 0.16970298564032812 1.1519236249410365
H 0.9989006444310504 0.7021699806058149 -0.5017484274976601
H 3.7523734743718844 0.49136687533047707 0.8364196544891648
H 3.4792756332511465 1.0855906664018882 -0.7876376631672583
H 2.771549368635257 -1.706231616993375 0.19166322004936273
H 2.6660759777964573 -0.6048463028365242 -2.391706563396156
H 4.635732062313493 -2.5069908874222153 -1.1353289491878196
H 5.22269664630746 -1.371821447605205 0.08646280986553453