20

C 0.8711636049424419 -0.016369160794472704 -0.632301017620612
C 2.33226242520703 -0.36815571988418344 -0.38214020854485997
C 3.0903516018510935 0.7798280247879653 0.27582766673606396
O 2.5483999023460537 1.1154410669035448 1.5299721552622594
C 4.580891820585477 0.47904943346077167 0.4498838505546754
N 4.777025983350112 -0.5126815318193712 1.4872522021222723
C 6.142758279920944 -0.6134142390550555 1.9562849778396656
H 0.32453164431516474 -0.8628417078626656 -1.058554390887391
H 0.7815324001004192 0.8250145891574949 -1.321595851949782
H 0.3773687051521312 0.2643754786483261 0.3021388962684126
H 2.821665986664098 -0.6184433179249985 -1.323309137968308
H 2.3870097654245477 -1.253372103848107 0.2587497069627087
H 2.9918372330582432 1.6723635548814864 -0.3572716119597012
H 3.0185632057155325 0.5507276661737313 2.1597401713464905
H 5.071091621253036 1.3988184792518727 0.7809835669282574
H 5.028334764873605 0.2003580632329851 -0.5153290711577406
H 4.467667848091183 -1.415651997783554 1.1483755189879765
H 6.435285546597306 0.3237283937658057 2.432207865514833
H 6.867739715935097 -0.8276769261751898 1.1530511903380773
H 6.218717524172521 -1.4045905424858438 2.7076701301089567