15

C 0.03899807301927369 -0.04949167122676751 0.591622221456417
C 1.4357234792862594 -0.027194862995132286 0.0822950145420036
C 2.461819436472389 0.4101020633601509 0.8082486629847584
O 3.728608847678875 0.35311547661189263 0.3042463016170482
C 4.699736083089606 1.0504557845349598 0.9240164931350843
N 4.490281998187795 1.852194313557785 1.870258352827533
N 5.574854277584307 2.4305035376085993 2.492320407892284
H -0.6281134753113057 0.5435382589486419 -0.050622368741336556
H -0.03265364571646751 0.344326416467392 1.60562181815072
H -0.36983343185397444 -1.062525177417602 0.5958479685482911
H 1.625413702198103 -0.38389638691500816 -0.9213017554681776
H 2.3809893761758256 0.8064671213649199 1.8125399435134968
H 5.682533615485329 0.8224238405309127 0.5047905052172431
H 5.298798635207795 3.327837599600719 2.854183489381089
H 6.378573054889508 2.5661728244631807 1.8696004431899442