15

C 1.032495576761825 0.04574053998395261 0.05890092788055384
C 2.533105250101503 0.05570798386041205 0.040744782272052374
C 3.214176051866526 -1.142038282574932 -0.36347982777365295
O 2.679562213995 -2.2065952456587214 -0.6464209715951229
C 3.2426891681972565 1.1855824981655676 0.37078819707894456
N 2.622709153417634 2.3957033113826456 0.535959426195075
N 4.589765013750655 1.248557144347588 0.6025572670419547
H 0.7027973942521512 -0.9868239663264555 -0.05340707505583389
H 0.600709131015342 0.6258507954873263 -0.7568075566380207
H 0.6301861214235814 0.4245339047979279 0.9959528224352566
H 4.323936026406887 -1.0805054956747757 -0.45686612387434744
H 1.6195358350059044 2.3889604703622638 0.5078269498468442
H 3.0199880239039567 3.012742284313589 1.226444293878563
H 5.103691191294253 0.398299561428391 0.4450803540548158
H 5.048515146277182 2.068924502276747 0.20994316315110562