17

C 0.8279028999713556 0.15117320397260686 0.08504063997684401
C 2.3536150645714145 0.1376273546215502 0.07303460164153426
C 2.9189900042202597 0.795528612329919 1.324809733065233
O 2.709555963102907 -1.2360392568767653 0.058677373206053166
C 2.8652405987020195 0.8086111979110624 -1.2043322448893123
N 2.792038463543533 2.18051733937564 -1.2251496479922874
N 3.3638338319313252 0.19321751258924091 -2.1998375519511675
H 0.46027813155263864 -0.35199120471697354 0.981910321608826
H 0.4418153817156051 -0.3741970079248499 -0.7839119652177053
H 0.4346273656368644 1.1680914019285642 0.07502195861780127
H 2.590051343248859 0.25078204984306723 2.200168120750415
H 2.609604920596161 1.8327888792038876 1.4195516687120173
H 4.012015123173303 0.7878999084612379 1.294006616197876
H 3.6542603357983 -1.2972672357145671 0.19573961224476122
H 2.0964267418856206 2.6284078456674873 -0.6463511362101488
H 2.932064024961929 2.591288609957247 -2.1262164476400387
H 3.3656732916055163 -0.8013913706548704 -2.000867614332499