17

C 0.9414311130918758 0.522567208890875 -0.4981379573292336
C 2.3174657647508434 0.38512159243951344 0.11382658179144334
C 2.9182598766606525 1.710318226633991 0.5022676007143347
O 2.2573953173397734 -0.39679871194298777 1.3082867087109822
C 2.1952795111399612 -1.74637504245606 1.2087851020410152
N 2.019441783057461 -2.2701283628923585 2.4659889164316615
N 2.2513095285330644 -2.4883913857091784 0.18506504568443533
H 0.9990660954304721 1.0990113231374745 -1.423926946507354
H 0.27588802303825394 1.0438731401638628 0.1867564186335228
H 0.5052297018949257 -0.4556227439367899 -0.728626105747668
H 2.998712660490015 -0.11874637952420525 -0.5938470762321609
H 2.289671102545361 2.218977755851562 1.2334099926844857
H 3.007871806928698 2.3557495384065983 -0.37623174310588386
H 3.907796123168745 1.5732817611039822 0.9400183733606531
H 2.33792931527804 -1.705311126815417 3.2352825109388648
H 2.2070342274913237 -3.2614686644813125 2.5268816903403177
H 2.3228491189044527 -1.9694804920132816 -0.6754890659194217