15

C 1.3478583273339948 -0.18674066485191168 -0.13040289267901675
C 2.847551485581855 -0.2620622041928588 0.09469151662013398
C 3.44065732829499 1.0384881516015687 0.547735245150093
O 2.7855979401501165 2.0385220902800545 0.724774104820277
C 4.950359478175841 1.0953501303948794 0.8125089592284203
N 5.34607907854724 2.3141652222190165 1.2186346854609311
N 5.759316623140532 0.11664557974150778 0.6662254532529525
H 0.967041804657222 -1.1423664888633074 -0.465746791068003
H 1.1075893665665828 0.5662816477279142 -0.8818484390189846
H 0.8341900134878483 0.09524077001673971 0.7938139143502978
H 3.363332916482824 -0.5620502103972062 -0.8286668248653106
H 3.1027353665958803 -1.030352136000217 0.8345873104669348
H 4.663917520257137 3.044594463641899 1.3085032633755362
H 6.320958574263596 2.4775438583190663 1.4155046996151404
H 5.2738929696022785 -0.7205112830967444 0.3550305956410966