17

C 1.1417960078813358 -0.2257754833497458 0.22446984513814175
C 2.665812228348977 -0.24608813231103893 0.3195309983429239
C 3.2928362308099106 1.1310543842053744 0.10023877065030838
O 2.8487293867212293 2.063134060817438 1.0470196589952985
C 4.81583481046038 1.0648642287885417 0.04883686298991796
N 5.322259886633852 0.21225517011195355 -0.9018659396201967
N 5.594895941511171 1.7029885500360173 0.8288637804853664
H 0.7319477805324162 -1.2204847053006347 0.42563235722823806
H 0.8209861413565782 0.07291320600498667 -0.7777933538282198
H 0.7022725863606321 0.4780046711467377 0.9356385239976225
H 3.085660199723799 -0.9590012056138477 -0.39088816011845734
H 2.982614945909933 -0.6016193984280956 1.3109564250412908
H 2.9446151731493617 1.527441815647949 -0.8659339907614274
H 2.9052925145371535 1.6551867658994766 1.924160430182286
H 4.773657058215896 0.047934072113600276 -1.721898868592053
H 6.307220770023702 0.32087077895151406 -1.059600949495487
H 5.044019132380537 2.275441621450375 1.4598489598829545