14

C 0.7562868060888938 0.7673227268780961 0.6877357429891561
C 2.1902444170394255 0.7618924754894331 0.28330978065405776
C 3.0752851726934813 1.690278640024417 0.621384758013007
O 2.416204677590031 -0.3597156622792172 -0.4779426948107004
C 3.580678723014544 -0.7353115936569676 -1.022578823337788
N 4.675412950629308 -0.11027287065226153 -0.9322056947573911
O 5.657821781404775 -0.7957336490107405 -1.6364935148940725
H 0.5321269314509246 1.6522122554955778 1.28962140269156
H 0.5084499575401876 -0.1306809395530406 1.2618535667613786
H 0.11106147885538116 0.7838213644762897 -0.1996247905783117
H 2.743466817525498 2.5166199607395066 1.2321347851685909
H 4.113632777804927 1.6476447581881515 0.31504405691425047
H 3.4700585374898427 -1.6701932167261333 -1.5769579077345437
H 6.439526672098074 -0.24837951774526681 -1.503426433528138