14

C 1.0256803848299985 0.13053348556864383 0.00349228521248345
C 2.5331541685721874 -0.044503673175503126 0.2530088218388922
C 2.864164643347176 0.5362311860811301 1.6071073130605817
O 3.362934250508884 -0.07078874532286775 2.5117852060313273
C 2.966388694335772 -1.458022291501654 0.1164310094988786
N 3.6904046733323916 -1.7954373604650116 -0.8638830252822433
O 3.9855983178298584 -3.1423159530722287 -0.8661717161787286
H 0.7150251817886453 1.1627149184089776 0.1626734978397919
H 0.44144903539315883 -0.5014929886445988 0.6824639131589598
H 0.7798945501476738 -0.14641445359872868 -1.0241587105944538
H 3.076205614772096 0.5573525082888672 -0.48800696714024633
H 2.5954667005127026 1.6019641071966597 1.7212695236607998
H 2.6432058963587064 -2.194724219780051 0.8598209863720804
H 4.545848136946588 -3.2416428888601665 -1.6318092505273003