16

C 0.9102326427254591 -0.09680978611960807 -0.27052044077112036
C 2.4296282800555615 0.05367722862241217 -0.2489513507775453
C 3.065216690657841 -0.5320864279091684 -1.5087162911626415
O 2.7582518864613057 1.4084305053024846 -0.1588125321985902
C 3.0131071110265797 -0.6211059202018583 1.0013613509949995
N 2.8244285614911147 -1.9548442711150034 1.142129826140213
O 3.620749419061569 0.04028879861332756 1.8317053881722458
H 0.5200380296584136 0.48817844341730043 -1.1137628708610756
H 0.47974609882446395 0.3039334949001844 0.6442409839812477
H 0.588626307517422 -1.1318723955778802 -0.394812606971218
H 2.718945392288796 0.04216656538641022 -2.3712312195226177
H 2.8022692018578983 -1.5782367203484524 -1.667340166945235
H 4.1514691299506 -0.43888402483712036 -1.4593831968701096
H 3.2488876329867225 1.502268220612322 0.6769104814130101
H 2.3188284235826617 -2.4885633359615666 0.45716475317484784
H 3.1976442778855834 -2.4134477781221935 1.9567191376475066