16

C 0.9611482199134311 -0.0801514150921756 0.24427493519879248
C 2.4550278779236985 -0.2960165130024113 0.19237055994075306
C 2.853079732585042 -1.748439091278246 0.35523388341048284
O 2.9775274711597484 0.11424748027948299 -1.08274226176545
C 3.191755019066698 1.4032773931775058 -1.2882817269423297
N 2.9654176175396203 2.3041027839759423 -0.41931007929048836
O 3.321900412244752 3.5581648848286105 -0.9130267023126456
H 0.5678739073551299 -0.3984282125182433 1.2111697974036257
H 0.46131045467646403 -0.6711535805536932 -0.5289469485573112
H 0.7083878984190004 0.964594145842868 0.09480156708704228
H 2.9406015217750356 0.3244076666760338 0.9602584070942126
H 2.4040166702312638 -2.3561989715070943 -0.42922546715021576
H 2.49686376462739 -2.118430563394431 1.321601333518616
H 3.9379952375728737 -1.8587620434330376 0.32213374438607834
H 3.601898805942907 1.6258877399880531 -2.2786383538866
H 3.09113422384168 4.138095253548179 -0.19257447864298224