16

C 0.9272437390485361 -0.02542628800494305 -0.12747813998173102
C 2.366189694816138 -0.06242999240408461 0.36925060955563294
C 2.7079040597863253 1.2083939910256114 1.14149872235535
O 4.058078024232588 1.2963469539674555 1.522099868227668
C 2.6069194727941767 -1.3138212922188 1.166840772858944
N 3.103365406973626 -1.2717342730614032 2.327143611733902
O 3.232955680494537 -2.5235328332350457 2.884092256972083
H 0.7639907695354454 0.8345715325800281 -0.7780636964839154
H 0.22109336969582843 0.042213462433878364 0.7085923991916008
H 0.6730572531041418 -0.9301007927986527 -0.6947685691576898
H 3.0280557603252243 -0.11056829896704848 -0.5052136509751364
H 2.0400611070091212 1.2851716276890157 2.0060481252065334
H 2.5051717539538965 2.067482438228745 0.5004612056651381
H 4.197722285696238 0.5636557835266894 2.136918575168907
H 2.3303171895723294 -2.2700935092037278 0.7236643166434856
H 3.6048685290560156 -2.34518297030265 3.7532668275481536