16

C 1.013638455665451 0.24637358508853704 0.06828225529373548
C 2.3700108700518423 -0.44959364831713916 0.2282082395795094
C 2.802649835564578 -0.4757273513866602 1.6845017529187059
O 4.049645173419124 -1.0914606692222415 1.8850207939028711
C 2.330860302769453 -1.8713318720184673 -0.32197759883409943
N 2.1115142570108105 -1.9867189398513754 -1.6469540440701804
O 2.4738396428284366 -2.858409214187663 0.391890303694793
H 1.064878630278942 1.2454249909316324 0.5023858469835554
H 0.23302087774248556 -0.3096446617961685 0.5951428797495036
H 0.7186790167833284 0.34247859999537583 -0.975069626484059
H 3.124928788347821 0.0925363681211234 -0.3445160004849076
H 2.023354027043258 -0.9558954372842914 2.285342822357366
H 2.896678132211837 0.561997855055095 2.0332477293684525
H 3.912503779959863 -2.0143401677112536 1.6579145210530375
H 2.0230978181058243 -1.1870921115271074 -2.2431054219563014
H 2.0978392674119672 -2.910572998682054 -2.059767316784845