16

C 1.1942982308519265 0.2569756032995972 0.1809285314222127
C 2.693969015319547 0.2093370610905666 -0.008748718328821965
C 3.121202025028749 -0.6985864694931759 -1.1452471672946054
O 2.6716992123800902 -0.25226065513446394 -2.4175232505413042
C 4.639775897592549 -0.9443940252148461 -1.1140062098125036
N 5.2524040476189136 -0.8109048433038099 -2.3075841173703333
O 5.210834380504121 -1.238423741660128 -0.08571798449960516
H 0.9222802506764102 0.9463534641942932 0.9834099585746992
H 0.8018555980922062 -0.7270836583879529 0.45217037920148384
H 0.674479525048515 0.5692519202094235 -0.7335533514798366
H 3.1988834893469105 -0.14184426098774092 0.8957694027715652
H 3.090704270057392 1.216667474556348 -0.2121741885476794
H 2.6744441391130063 -1.6886519537345865 -1.0062351495565893
H 2.697673801814371 0.705420891109835 -2.4199001112283067
H 4.701285181071437 -0.6782421438663444 -3.1317874753707073
H 6.227419132622192 -1.0481742148566717 -2.377266009912228