18

C 0.4508291002908684 0.5016844415328845 0.5169070175367045
C 1.7736640726962898 -0.07730250338138975 0.05864374714272234
C 2.917425966639182 0.863601756977033 0.421232645317141
O 4.183727701295418 0.3949596149403947 0.03781827926347515
N 2.001001086015678 -1.3605658625797978 0.6947300446965908
C 1.2654524268298113 -2.4768598752517708 0.14622250510276347
C 2.718413569185841 -2.3643104206208316 -0.08664337730746081
H 0.2823807678266394 1.4841715659266845 0.06164794554630503
H 0.4402660226287362 0.6101074478317974 1.6019018419605262
H -0.3736536874036491 -0.1466156030744168 0.24029611259027722
H 1.7634815322743655 -0.19300274384607607 -1.0438920471699473
H 2.8714481097700486 1.0573697622883194 1.49862314190229
H 2.7680126386203314 1.8215184438461454 -0.09100108859487747
H 4.376254009383276 -0.3914018951029773 0.5681380777337611
H 0.6089442148165817 -2.283912600780213 -0.7041186977655921
H 0.878313275954077 -3.198796867795965 0.8634259662911172
H 3.0429197092957825 -2.0860859016771514 -1.086682017281822
H 3.4070462773748393 -2.9887860891728284 0.4668254241905174