16

C 1.12976722795206 0.8748093887146341 0.09104215452495702
C 2.5602246294045323 0.37828325645465616 0.0427463917561226
C 2.7664829992399023 -0.7403048526195847 -0.9559952180291109
O 1.8988587066890021 -1.1500312861621587 -1.679921727528218
N 4.031277063935844 -1.3064988367735242 -0.9268412982185401
C 4.69816119177134 -1.7652728553094934 -2.1076416716920696
C 5.243778274020768 -0.6263230667031545 -1.3133485043231365
H 1.0338000486244492 1.6781290302400615 0.824952154659752
H 0.44685532765353864 0.08281678872661125 0.3653089766552784
H 0.8178124012459905 1.2630274278026394 -0.8780252156383253
H 2.8830105341689256 0.00251890359114828 1.023139292962968
H 3.259298684102132 1.1824269232398699 -0.2036481126476568
H 4.213337029482809 -1.5436353455217546 -3.052135031311072
H 5.165583762690793 -2.7411299802635627 -2.0361759204713423
H 5.149542843311108 0.3629096502698596 -1.7504684937411856
H 6.100611902641201 -0.7740752173395671 -0.676021205722309