20

C 1.5085230735917157 1.0164738071693107 0.4144717843869067
C 2.1848126982963527 -0.3347824548869024 0.26085064384302836
C 2.509446921452141 -0.9560777253568112 1.6149353877290762
O 3.081183327875728 -2.227646980050371 1.470096196510388
N 1.4667466528253632 -1.3306464148169816 -0.5367667011178466
C 0.07998898435821651 -1.5228500246265557 -0.1683625909993382
C 1.6067781269788657 -1.136431363765015 -1.9630282357764164
H 2.165241311680253 1.7196379902976997 0.9253018420329647
H 0.5887684181717506 0.9471479913599262 1.001483487579642
H 1.2563726029464584 1.457887829467041 -0.5599954434654322
H 3.143345345104961 -0.1905188315770053 -0.25539715061216883
H 1.6075034623009112 -0.9950452320471436 2.247319154906007
H 3.2350472110915143 -0.3109670881754462 2.138200978311223
H 2.6559133894485942 -2.5760041639093063 0.6641613275170117
H -0.01405582296035861 -1.6843118054866806 0.9135115850347583
H -0.30530885877057307 -2.420246137753818 -0.6618560183811689
H -0.567449132394618 -0.6739325400966614 -0.4391809226802728
H 2.66602925809754 -1.0775142756672478 -2.2292285163774186
H 1.099033487889949 -0.2269312745463037 -2.330240729891656
H 1.1724447673268499 -1.9889002055316871 -2.4860909097195223