18

C 1.112042075398556 -0.13523167135948883 0.13975720297390865
C 2.6104962939138443 -0.2210339729400395 -0.08453474707037988
C 3.3687209366279753 0.7918164498152193 0.752572688154339
O 2.780134127541677 1.5600222794245597 1.490121463661262
N 4.7240168350518275 0.8068213658194117 0.6333765730627609
C 5.504296187271605 -0.06388937161308404 -0.20682013288975953
C 5.488235825394996 1.7571256339355228 1.4119701928074457
H 0.5900421733575147 -0.875584609055113 -0.4724050544043482
H 0.7374394549233096 0.8575038650661936 -0.1266170436058336
H 0.8557942696942357 -0.29945604450548313 1.1872872320447259
H 2.843320454542092 -0.07358328942845165 -1.1411663471362954
H 2.9666137226528515 -1.2293929601346225 0.16649743067351075
H 4.868916965388091 -0.7478777353000337 -0.7558086850101003
H 6.207075564788731 -0.6500883425661208 0.39718654155523575
H 6.090106524470448 0.5209236254976699 -0.9264673958486864
H 4.805016355910738 2.3511087326518187 2.003062257472915
H 6.069288885915367 2.4154445235106436 0.7491125481801001
H 6.191113437927434 1.2376162162069928 2.0759127776736785