13

C 0.8652513023977498 1.6240772921481226 1.3141239342739524
C 1.4801022687933092 0.8287658104886947 0.44666565957280735
C 2.86445393105321 0.35821315273981164 0.7143966710167978
O 3.5004198812558274 0.6606425000199336 1.7060440604870941
N 3.379782539393881 -0.46599443533393214 -0.2770350892841523
C 4.648887532922222 -1.0163949510229966 -0.23007615407419274
N 5.184962862030309 -1.7623785100664304 -1.086817646671615
H -0.1413254407382297 1.9781060629237972 1.138642363156168
H 1.3739952919064107 1.9311133466474721 2.2172481894587133
H 0.9917990342190686 0.5063432057190476 -0.4702672539001951
H 2.8008247048355077 -0.6722764969297594 -1.0663076564151102
H 5.190870524511801 -0.7203823252964389 0.6671691119361927
H 4.560227913085533 -1.9569941366226036 -1.8776633801463374