15

C 1.2515891268053412 0.11558299933298484 -0.7761296384879993
C 2.244348940864087 0.8385666174788078 0.13224102424338444
C 2.680675165527628 2.1117313203950516 -0.5568678443259614
O 3.678125043480913 2.2333055663112202 -1.1996767708365517
N 1.6282945383914684 1.177675744684554 1.3916232886310336
C 2.161053486880278 0.7358138308786437 2.4520047416319093
N 1.7121448931520176 1.045602388115273 3.6950954493157258
H 1.7033992075122946 -0.11736215243090362 -1.743553420680794
H 0.3747152390592569 0.7468292112158255 -0.9435614526596556
H 0.9120654074523549 -0.8100687191699767 -0.299850273898279
H 3.145074558303017 0.2152936536930683 0.2554140856101727
H 1.9650274027016141 2.9592684894645225 -0.42874744914129365
H 3.0551264926982595 0.08709573120539871 2.444638618853128
H 0.8187608019654089 1.5030891442661616 3.7522652012202555
H 1.9771729591272396 0.459684373789813 4.466921968963686