15

C 1.0085246557325585 0.03753446860610929 0.03367875705199874
C 2.5130013715693766 -0.0015523040234885978 -0.09685425859741349
C 3.1473493832534563 1.3353463888166057 0.21023622462123628
O 2.508693360514212 2.311966570419429 0.5163968480805936
N 4.52326652143484 1.4238237708394008 0.12207823452332979
C 5.4299702866795005 0.4493621331758135 -0.218947985552784
N 6.685950494479364 0.557298740729963 -0.2844998773142953
H 0.5790928812703952 -0.9433216668371672 -0.19564941283010603
H 0.5714569389350982 0.7679180127750779 -0.6516644937863023
H 0.7074185026394361 0.31940525540383274 1.0433232635125775
H 2.8056356004739285 -0.3006545792428178 -1.1075428702081178
H 2.9392568344015477 -0.7482782479478216 0.5697772866342701
H 4.873887708130664 2.349857896016371 0.34356905257460846
H 4.978490582822817 -0.5161434340494732 -0.43649774303249195
H 7.010066028967975 1.4946300377074675 -0.0643928769199869