17

C 1.0408980456243608 0.3717284486935832 -0.12265019510646742
C 2.5202874146294 0.15756429828842394 0.10390885467095565
C 2.8276212738339033 -1.2593197753282097 0.5008432781801843
O 4.235072755847686 -1.3655507367971114 0.6960577516860733
N 4.578511741844681 -2.6735535333334384 1.0134507409817797
C 5.4216373099847335 -3.2862700091694568 0.10473252549944088
N 5.696110190194152 -2.9532150079720023 -1.0746386657505853
H 0.8261752480951373 1.4094875510794278 -0.4052089834364761
H 0.45809058331730323 0.14872343815584682 0.7800905031379549
H 0.6612213505155825 -0.27101458733327344 -0.9217581255705873
H 2.882778359917855 0.8335324646638133 0.8951493271455989
H 3.0899952545461216 0.41375478396836557 -0.793394206850716
H 2.517396003697612 -1.966899297762925 -0.2800254233067293
H 2.3148432453768324 -1.5374536723577152 1.4228654501889944
H 4.887306573197729 -2.718923132936878 1.9754779904023225
H 5.83548319185043 -4.212871999871085 0.5221097491096058
H 5.2524460594930895 -2.0581260401791712 -1.294469558695515