14

C 2.410276303401893 1.5596738199097078 -1.7938833825312257
C 1.763904664127225 1.1731885482876547 -0.7076644480441241
C 2.3121905871681396 0.30873348895434094 0.37007071936033636
O 3.657306331244325 -0.035390328962793 0.07305898151917262
N 4.1700142927866075 -0.8407813592596933 1.0713573418204347
C 5.215721803084117 -0.3594924586285799 1.7999395194369696
O 5.939798357517424 -1.0482514487957098 2.4712499176740774
H 1.9324900210885845 2.196614871370184 -2.534018832587447
H 3.4338546199992064 1.2687075940939876 -1.9779442646403922
H 0.7309161233990944 1.480735405711216 -0.548493871145879
H 1.7037311210753765 -0.5982878700396177 0.4716009428860126
H 2.273175828090037 0.8364770636013608 1.334139532352809
H 4.173851898135203 -1.8334693582270485 0.8267967310970438
H 5.291221511973179 0.7409803446954838 1.7198761445757433