16

C 0.8591826492921478 0.03607291336438263 0.01799931501471787
C 2.3171794567520654 -0.1635329017165458 0.3288370858106923
C 2.580680819653379 -1.3463461668733123 1.2329144865777024
O 2.958431125382044 -0.33322920967379716 -0.9502643161083475
N 4.330202876672552 -0.3197741574242266 -0.8472110281302244
C 4.986959315029083 0.7189524018673775 -1.4183035578337058
O 6.171280596341712 0.7125791159414253 -1.6526766543012368
H 0.29727512723008126 0.21614617665722718 0.9341432633698058
H 0.4464918507991258 -0.8528963437866316 -0.47144941723111855
H 0.7152459955885216 0.8826241966987219 -0.6530740923138831
H 2.7360278449865696 0.7471709703347577 0.782499177206805
H 2.1922962832258124 -2.261687546156982 0.7915141196273111
H 2.090337634383112 -1.1963052839577448 2.1959687156891943
H 3.647049839158625 -1.4659197878205568 1.4262828721495024
H 4.758717687738968 -1.2332607925912662 -0.8846728312754629
H 4.315401091179232 1.5793689571710674 -1.612811760841332