16

C 1.2709587160577638 0.16829725545949897 0.42239724247883487
C 2.287175231358718 -0.913102588243362 0.10371188798145359
C 2.7523286033797465 -1.621563132151032 1.3584309691127565
O 3.6559234699876506 -2.670499252635275 1.1126274022331968
N 1.7238936924782717 -1.8286815749656558 -0.8797369517923987
C 2.4826091981942895 -2.538360190136114 -1.7285859334229228
O 3.6981174547586866 -2.5349229899442753 -1.7458656838141675
H 1.6907789443492103 0.8793198625873907 1.1392835823685703
H 0.36479772013813017 -0.251738528718328 0.8678760615352688
H 0.9824985755982127 0.7200933470807687 -0.47897675180076066
H 3.160586609362086 -0.4610745979027995 -0.3837239961538136
H 1.8907437651144474 -2.0398995454679745 1.8891059356529192
H 3.208109486031275 -0.8646541824204079 2.017583714802806
H 4.008098328656019 -2.5798813552141646 0.22175396046889337
H 0.7258722256545129 -1.9436452978141177 -0.9237828640823723
H 1.884511708493274 -3.1339129535557557 -2.4496629202993594