14

C 0.8838890509898119 0.2641419630572155 0.23242823230114934
C 2.3682463378499663 0.06040458671342487 0.04298966666925662
C 2.697146887443718 -1.1640913270264184 -0.7728050205389873
O 1.8711641676556603 -1.9068941180979992 -1.2284566160933212
N 4.059790220864519 -1.3695544900789443 -0.9569042782381698
C 4.595864503049585 -2.42377301074635 -1.6639504548816926
O 5.781003945297071 -2.5639850846856747 -1.8053926315984128
H 0.6919592720413934 1.1673918624633963 0.8260777165916867
H 0.43128612410202694 -0.5846380355579327 0.7431828293349816
H 0.3808421022652749 0.37980361518460765 -0.7247702012811856
H 2.8889491481508394 -0.02804831036758671 1.015638479299876
H 2.8310456457766335 0.932907985304189 -0.45526387642036065
H 4.720347162037801 -0.7217806305139834 -0.5567463093058547
H 3.8298352481920674 -3.0893098855518715 -2.0778590872190583