17

C 1.3491260404180572 0.26092893643010284 -0.18070928684776655
C 2.549673812780594 -0.2047302747384164 0.620018797171903
C 2.267581896892923 -0.21266460343852778 2.1217717777110408
O 3.400625458910072 -0.5783162480004347 2.8603683175626675
N 2.98747401084402 -1.547911903128757 0.2628928937159352
N 3.7119536669440674 -1.6268692763124566 -0.8795974278275243
C 3.7289145270420594 -2.7203917569996388 -1.5241382830057164
H 1.083934101560151 1.2934609659804632 0.0814466726656725
H 0.47990811063771144 -0.36548516155079275 0.00020212392383327053
H 1.5760100540717823 0.23324310656944844 -1.2517695019928174
H 3.401613536081066 0.4395513944867556 0.43098432350035515
H 1.4162576159221536 -0.8767177544168268 2.327537901199719
H 1.9772840605506525 0.7966070714507777 2.4331010691577672
H 3.821609823906509 -1.2926254666681338 2.366227788963733
H 2.2588532394520136 -2.2528125201633533 0.34541844044366654
H 4.357679529159583 -2.7779313874018623 -2.403014274429188
H 3.148181172026327 -3.596884280944114 -1.232525682787143