15

C 0.9040944015596941 -0.12337073975792871 -0.1638681975686416
C 2.40819937689536 0.049240298973620304 -0.020241594019247054
C 2.962892588502261 1.0409906285722872 -1.0092068037957387
O 2.295689729945448 1.6258720930124757 -1.8383916360924974
N 4.315826935164552 1.2579172434391614 -0.9562971878022448
N 5.122813393188951 0.6532438916449088 -0.08372139230194575
C 6.369927992196221 0.9287373847142248 -0.11440569228667376
H 0.5344421803932282 -0.8351151309600887 0.5769485715402325
H 0.6432660293683963 -0.4741215396725256 -1.1573697221491799
H 0.3861222949763678 0.8246748180703853 -0.004358395332858693
H 2.9380789680857022 -0.8977392785396218 -0.14211023761733974
H 2.6860213293707096 0.39008772396254837 0.9848590575420121
H 4.6852527470859595 1.928013508220618 -1.6311471324630002
H 7.005443392924618 0.42946656651332493 0.6006753401260186
H 6.803919759286633 1.637319897398635 -0.8236153532346021