12

C 0.9709361385361646 0.4980263011164154 0.5150306657457248
C 2.2709470312270774 0.2981905807672506 0.4053721436681345
C 2.893789661827252 0.1343928447503929 -0.9317794302837564
O 2.3319324249182696 0.1651872850642632 -1.9842812562782493
O 4.240569670771546 -0.06268096569044349 -0.7626039091861794
N 4.929377785531352 -0.22936514883046993 -1.9514992845979764
C 6.156505675081183 -0.4007319457286971 -1.7194565076747528
H 0.4998294198392203 0.6205275117271188 1.4844900236204082
H 0.35116403684353825 0.554138598751677 -0.36843117917259455
H 2.9246121506751224 0.24217237644053313 1.2638730411665031
H 6.786819454080825 -0.5487058010685535 -2.591015364584632
H 6.582389431097054 -0.41712890029069766 -0.7155585882903676