16

C 0.8141343705319862 0.3441667336358035 0.27062296381011025
C 2.2761276551107805 -1.8919366931560277e-05 0.2845262969202907
C 2.729425036944142 -0.5886133829407966 1.6009297766084702
O 4.114323140234487 -0.628464311762442 1.7715984069242254
O 2.455459912856887 -0.9197943060756468 -0.8040272877962384
N 3.7659587908231407 -1.2792325989887026 -0.9514788451928012
C 3.954619909756802 -2.049060967313493 -1.929366619670009
H 0.6036013067643846 1.1349404445369122 0.9964521143754611
H 0.21087723703215544 -0.5317285536824089 0.5357491758079687
H 0.5010724610022408 0.6851372522106712 -0.7163953857210629
H 2.889040011308204 0.8968208180078243 0.07734947258807195
H 2.2814714493607804 -1.5945841212710725 1.6945944748196176
H 2.324769818625105 0.01720669653524863 2.4164322754390994
H 4.481206427546471 -0.950098240104016 0.9439756073737825
H 4.979908173803714 -2.384575313748194 -2.106222274070061
H 3.149726890603344 -2.376876474344737 -2.5823444887376716