16

C 3.0760157562712087 -1.0883208962719892 -0.11062674267686685
C 2.368229952232778 0.19835775718492835 0.28136291773023886
N 2.9349188184741246 1.344547504031782 -0.37066581304695306
C 2.3305419863404238 2.6556168368273947 -0.06925803474086642
C 3.7414136550791377 3.197924564124346 0.08040027819685405
O 4.226888759617598 4.286571845159316 0.16240575626737605
C 4.280752232848329 1.781398395343535 0.040592801837187796
H 2.6239094309324105 -1.9433879456292877 0.3939738577890998
H 4.127842450511916 -1.0535765073506156 0.17846678446737696
H 3.01926231265109 -1.2353193014382295 -1.1825354126749452
H 2.392436127021343 0.3123726347675545 1.381405329070985
H 1.3095518887270843 0.1344662684991474 -0.0020692526533467605
H 1.798376309014697 2.688694247792828 0.8896323711043158
H 1.6978847240500412 3.082890838248191 -0.8475780780222608
H 4.5553754019334995 1.4450437333850035 1.0579197789212884
H 5.087231264296756 1.5548625974835337 -0.6495609314075883