18

C 1.0475910076852843 0.19291315602596823 0.024109399314147868
C 2.5650160725374436 0.12815859719700756 0.013183469395157457
N 3.140461039639795 -0.30188455990445406 -1.2502505618830555
C 3.1638413219073107 1.4771419795082852 0.3917458448314043
C 4.684165502548814 1.6517586362959114 0.3350235848646303
C 4.375695825052061 2.754535632195792 -0.6779914275585732
O 2.9676826067480424 2.463282141648409 -0.6445879539002111
H 0.6178708468647329 -0.7671128135870624 -0.24871245225617503
H 0.6917372886965155 0.9466880764137271 -0.6845886061975853
H 0.656257110100108 0.46474659044571714 1.0166640129290814
H 2.8984555681018924 -0.5765980943910816 0.7815247480290449
H 2.8600043964336366 0.3556657369672247 -1.9737091576217154
H 2.775862106533033 -1.2078912233902628 -1.5090912031698596
H 2.7115109787743843 1.816594936583742 1.32975947054511
H 5.192638139990011 0.7811695950464371 -0.0858640952392439
H 5.1567175385022495 1.9576465660210156 1.2568529255006822
H 4.798311631623683 2.6226940993640113 -1.6774337100805434
H 4.571930644364528 3.7688909365080536 -0.3279038313036996