18

C 1.7410114097816687 0.8028013720948766 -0.5189274441175693
C 2.790782717170742 0.19110314823423785 0.39821611048052846
N 2.231629762848222 -0.6081439739496785 1.484362221356425
C 3.7953356886784504 -0.7076658988284275 -0.31178203030210216
C 5.00931594681302 -1.0785008655747088 0.4925892276843391
C 3.8671356849999374 -0.7847910044815555 -1.7748825460135549
O 3.1926832139422805 -1.7944531492080817 -1.0297311905353865
H 1.0119393536457375 1.3487125531448727 0.08072764355091178
H 1.2174817205870287 0.01906505342513619 -1.070509954675978
H 2.1754146904033003 1.5063394127239234 -1.2363230561098923
H 3.3680823394740775 0.9956584424195306 0.858053710206723
H 1.7144785892378305 -1.3879471304637234 1.0975378231771238
H 1.5753605022939035 -0.054671652810713886 2.0220905709906005
H 4.706543970955322 -1.4808616208574326 1.4627692334450717
H 5.629950315079532 -0.2023906500036326 0.6726477349373696
H 5.597843432661214 -1.822052539079771 -0.03911335041249954
H 4.799527046545737 -1.0981911309300005 -2.2344996459835613
H 3.2229454879422526 -0.16346525870358858 -2.398948744667515