18

C 1.1068327850954627 0.7369157823834612 0.1356549060194929
C 2.4133807048507845 0.7188879744085415 -0.6301597201194855
N 3.4817244660034965 0.14274000013561125 0.1554075149319069
C 4.745549240463576 0.08173231637867363 -0.5012677836766357
C 5.88201530045158 -0.6165649433008084 0.24223700741468498
O 6.234781847929376 -1.3840879115887976 -0.9107820838726067
C 5.045109985312681 -0.9650990393860811 -1.5960607566623957
H 0.31258015461839256 1.203733367428313 -0.44684931736609423
H 1.2197172436753734 1.2944283516325803 1.074085985553536
H 0.7856935117850584 -0.2798561034107685 0.3859799187383979
H 2.7054919584952724 1.739225302191727 -0.8912260870925112
H 2.2630032332912062 0.1857564599345538 -1.5863275815076567
H 3.209595543508846 -0.780619563657253 0.48857946911047434
H 5.018369059148177 1.0861021053697344 -0.8271300672103818
H 5.532380151978622 -1.2477163889660858 1.0621324168892365
H 6.712030013877823 0.0005687166533448825 0.5965414329922628
H 4.303915124313111 -1.7680811203664468 -1.6546482235544548
H 5.2674002886202675 -0.605611064967105 -2.610526902576606