18

C 0.9565192719426014 -0.15234478286391667 0.1891766032556229
C 2.485873636742531 -0.07497208669034174 0.13224022134302915
N 3.154168646853874 -0.6546338826850959 1.2883040223249396
C 2.997725861514096 -0.7004075653307384 -1.1532338729477445
C 4.510157079810402 -0.8552086170430654 -1.3312831472594957
O 4.39601756753521 -2.271900647353846 -1.5217830541688706
C 2.980992292791808 -2.2281093291280945 -1.2985362592767842
H 0.5819929557057983 0.32304245898419776 1.101762796468469
H 0.6189024080209171 -1.1965693413837921 0.1877500580475826
H 0.49634492299472927 0.3492862918794105 -0.6627035575542362
H 2.7686753836082634 0.9814794473827234 0.11088317761856192
H 2.8501776863700536 -1.6118838776150555 1.4416808795663782
H 2.9129288964959055 -0.1477440943554256 2.1320452976767066
H 2.520771745024006 -0.20111774097666332 -2.0028203970485587
H 5.087908696597409 -0.6218756715777932 -0.42948924793236265
H 4.959507467840237 -0.3708370514272077 -2.1960222567839014
H 2.6896002125375986 -2.791632078756098 -0.40809401369491727
H 2.4205315771326728 -2.628689892740876 -2.1572231327037086