18

C 0.7178304446834817 0.42602357900833365 -0.7427260149471461
C 2.03293759802687 -0.20568275360095326 -0.3469566308749527
N 3.036909421444781 0.8117196321567924 -0.07769069972625414
C 4.3059165226701985 0.26968804733881735 0.3518684903240844
C 5.314201582850945 1.3676100617757032 0.5248748498309553
C 5.583460384144541 1.9581779251431979 1.831685544758949
O 6.483947563845303 1.0412495597308207 1.2488490322551156
H -0.024783232187590265 -0.3435980919188971 -0.9746983965687743
H 0.8348307708465927 1.0681917477600542 -1.6106246912698914
H 0.31016220786807147 1.0343776924548265 0.07197664357749152
H 2.4015330046996697 -0.8350091341705778 -1.1694830112422647
H 1.886373379868728 -0.8756486066690361 0.5189615538619561
H 2.6925083026680023 1.4611426721398224 0.6172667291689231
H 4.671010560892966 -0.4237560018895445 -0.41942430663669783
H 4.247724422256401 -0.31659263937961535 1.2895891941635709
H 5.480817617928087 1.9860604671107462 -0.3587802861996923
H 5.039231325958554 1.592593092689363 2.704852660200685
H 5.937202240443233 2.9861557081965455 1.8967200000833122