18

C 0.8519475542894465 0.11410777195037067 0.0022047012425453504
C 2.3743040326386113 0.029599504987386012 0.03652931887919351
N 2.9259662442582925 -0.2711861166482329 1.3472918484849534
C 2.9204220605464033 -1.0041388718213453 -0.9527862291291929
C 2.620279471300693 -0.6939065212832703 -2.3915719498432857
C 2.5361937015810136 -1.7293196232368704 -3.4069131228863103
O 1.3576161349915914 -1.1030567994569083 -2.9090716204242475
H 0.4969324591873121 0.8646254123603675 0.7086729068122946
H 0.410094198785079 -0.8489889615401871 0.28001628423757824
H 0.4702844854832235 0.36751581668827904 -0.9865393187052809
H 2.776218653439504 1.0082119444585358 -0.25658836016553405
H 2.581202267376975 -1.1768999182138047 1.6640537263924349
H 2.592714850769406 0.4036447272157599 2.0309998843018446
H 2.515182845559124 -1.9950743198262673 -0.7124902763990689
H 4.006170270230187 -1.047772156422239 -0.8223021226700642
H 2.9142805485130125 0.3063347560406785 -2.7240003861449376
H 2.65793141602072 -2.77579979728187 -3.1059562042821653
H 2.779146568308119 -1.5106126485314701 -4.434923009326917