20

C 1.1176800913537956 0.08889876933571957 0.2588318224507218
C 2.634755786167225 0.058776336805077274 0.2591277210788565
N 3.168703427997161 0.626587622408768 1.4872876577757739
C 4.621585968417981 0.5334319199950031 1.582170901952093
C 5.147097351584567 1.2176805362423684 2.8253731751188953
C 4.875052117067406 2.7213216136718734 2.851198091504882
O 3.504594889119001 3.0255815315739882 2.9211650609510946
H 0.7312923998914026 -0.3158039226235651 -0.6765505194883054
H 0.7548344807914594 1.1131669928348669 0.3660032677144651
H 0.7126460237915965 -0.5071036862268797 1.0811034446460261
H 3.0162914629082027 0.6561827858783852 -0.5812908421866264
H 2.9888029214519785 -0.9670226585793538 0.10210495215141734
H 2.7632680890838515 0.15235089095567822 2.276576991442218
H 5.044396894114958 1.033257957154058 0.6917516289236492
H 4.976500950905886 -0.5107566960912224 1.5369185194288373
H 6.227968020400455 1.0587973622746203 2.8946306731597207
H 4.711138024113533 0.763522427615496 3.7170631691352294
H 5.344753750917146 3.1822979035567824 1.9677095630928803
H 5.343839360732023 3.1697009862256253 3.7389242670918468
H 3.073129714805305 2.4334370650674826 2.2764909281103574