14

C 2.667163626333584 0.3851403419678837 -1.392158083296291
C 2.2395203211477592 -0.1647958531036854 -0.2642406649794866
N 2.787605220440126 0.07255230374844925 1.0029193558468705
C 1.960235813815823 0.1491213305690395 2.125747532459383
C 0.6425220638286433 0.25191583689501695 2.106937999941373
C 4.153552595791596 0.15109065347838072 1.1712142053077628
O 4.69935757668396 0.387958541033872 2.2179177617888346
H 2.2369421686111313 0.0811433356010596 -2.3377720802112587
H 3.4405174559574294 1.141881988416115 -1.4099772704018412
H 1.4164190967930657 -0.880414134760427 -0.25264744114248217
H 2.5268753032170013 0.11866199020992542 3.0487072622757796
H 0.06575205271605487 0.33349157158010334 1.182824718516299
H 0.08674197596626705 0.26226038211902825 3.035285129540669
H 4.689611708828138 -0.05944665482499396 0.22866279346808566