20

C 1.0779709467937135 -0.21131547457507738 0.07329978154114478
C 2.5069295496855264 -0.16449604913319762 -0.47552824751137696
N 2.5831416107101686 -0.4819392065077273 -1.9032948976021875
C 3.135409530456595 1.21320266225762 -0.24627541079899923
C 4.658962571971746 1.243618260389109 -0.11308931641465796
C 5.458474831896982 0.46535855344429133 -1.1621146759477312
O 5.511313901078267 -0.9253545010690444 -0.9009581943430657
H 0.6155748088857653 -1.1839997816430077 -0.12847802036933825
H 0.46064984525049335 0.5613858871227597 -0.39992313574019406
H 1.0562910252750553 -0.047604475374297635 1.1496632957333484
H 3.1084836523847956 -0.9150059670358466 0.0383521899008562
H 1.8589573805649948 0.01468937964639213 -2.408528808988013
H 2.424115636238598 -1.4783407938694297 -2.0494377247853772
H 2.715226124625547 1.6584084096305944 0.6602743028038177
H 2.8243656427247026 1.859668027700933 -1.0734831902267945
H 4.954401845941227 0.8605319387454881 0.871034294119639
H 4.980584814721859 2.289472910555725 -0.14154256288656292
H 6.473019048093749 0.8749766910719751 -1.214730652812491
H 4.992470490584971 0.5585490739582799 -2.1468205283559634
H 6.019402562186819 -1.059391293710428 -0.09686999327479959