16

C 0.9511494288209157 0.034518472188631945 -0.02123150270181173
C 2.4510698737919623 -0.03248638396753288 -0.044562041076173696
N 3.05438674389506 1.1423393069721821 0.2784494465387097
C 3.1174985198969964 -1.1772125390559252 -0.37206478748593225
C 2.412613208762641 -2.4557344546670192 -0.7262926069877226
C 4.558077417094666 -1.2363580034796033 -0.402368860780984
O 5.208705359522484 -2.2297612321556035 -0.6829136675632219
H 0.6016230297953679 1.0273137944646475 0.2657656973050055
H 0.5462792223929823 -0.6841194273937825 0.6983244044097138
H 0.5396655600625616 -0.2061397165625598 -1.0032454625370262
H 2.4965038726123367 1.9418599907580534 0.5078361029763458
H 4.0429857990824365 1.250027785234864 0.30690807415775245
H 1.3304298863348187 -2.3703504826665385 -0.7005544196003858
H 2.707858277053282 -3.2605818885413917 -0.048688750170090035
H 2.6960226181742093 -2.7917811652437967 -1.7264935082339212
H 5.105817037491259 -0.30358268360015467 -0.13919865680378996