16

C 0.8196220359922309 0.14311706152943465 -0.1076954724665558
C 2.294841499274106 -0.07276913905587261 0.05060895031747782
N 2.638151668067239 -0.5293191927640776 1.2808405222078942
C 3.1391842375808467 0.20672412266056292 -0.9775049211610516
C 4.5776077607845 0.0914927173524714 -1.0875887933809434
C 5.408760136491951 -0.4065005229729097 0.07904995878209506
O 5.14412312108469 0.392987454923052 -2.1268333305769835
H 0.2814148734481169 -0.795528573359087 0.050988652011843424
H 0.5809849637561483 0.5133396634106501 -1.098110209294129
H 0.4524251759563144 0.8640898233363732 0.6345706476385349
H 1.92636060901969 -0.7008352655485744 1.9658709203129017
H 3.58714625475519 -0.7207617473565259 1.5373347437746439
H 2.670759032625568 0.5663766508162237 -1.8910686632797014
H 5.124538297334763 -1.4238712461383525 0.3730551305655096
H 5.291988109731273 0.2522196794053297 0.9525314809303405
H 6.45550065945059 -0.4072498790531804 -0.21456572820095451