20

C 1.4125384352126373 0.2996923022854067 -0.46904820808245207
C 2.8869385619253354 -0.0529649339759524 -0.6744166193717069
N 3.7569762241590046 1.127484645895476 -0.5791772665988032
C 3.387605652118481 -1.1316110068947487 0.2834198941131253
C 2.5133354625135547 -2.375191959622924 0.2607895854619545
C 4.832869723445149 -1.5408733958494232 -0.02506670414255945
O 5.787974479011128 -0.535175755967267 0.19332380917678632
H 1.1351412592057317 1.1270573753046875 -1.1239082237595648
H 1.2262013829014444 0.6101177248822904 0.5564909018988413
H 0.753795571928552 -0.5386052708479133 -0.6930123205252402
H 3.0149666584385386 -0.4389177909838124 -1.6924753017044414
H 3.5840282591462356 1.6043345112160838 0.3052359538019799
H 3.535429877579507 1.7880963608087266 -1.307264303008513
H 3.3814104995152365 -0.718481750335229 1.309614529723052
H 2.43293749881199 -2.782505387984193 -0.7575306569312834
H 1.4992033307111676 -2.1771078591335087 0.6159367579299792
H 2.937075048625702 -3.1598780826558484 0.8950584131923766
H 4.871871593354334 -1.9111760041006145 -1.0640729972106242
H 5.110158542116489 -2.380104366320527 0.6212413813423165
H 5.3965268130467186 0.2715673922939743 -0.20180035802266558