20

C 1.3530080560184496 -0.41978811871436933 -0.10569047093889417
C 2.795883563403247 0.04928881417401853 -0.17641426281576647
N 3.7356238081811264 -1.0235898046405922 -0.4898044083942848
C 3.0548449565047173 1.2176791150405626 -1.1630561053003514
C 2.660404631679793 0.8531813792681913 -2.596479073312325
C 2.352870448592225 2.477417853265018 -0.7098341899101857
O 4.443176829797805 1.4862105027623962 -1.1159053934003882
H 1.2467565428596143 -1.1888974819836549 0.6688837214572013
H 1.0201815052169048 -0.8512181729806303 -1.0496265777335774
H 0.6743053626860563 0.39641897200364157 0.15106881710729744
H 3.096202467930523 0.4339919554476961 0.804177271952806
H 3.371066249726068 -1.6325584663290906 -1.219051399971958
H 3.9149046510016867 -1.6126467646113485 0.3163847088190353
H 1.5856813778882335 0.6923666383740531 -2.693830705360315
H 3.180492886665792 -0.04155341701781385 -2.931237773140328
H 2.947645048680918 1.6696910465772898 -3.253252298767141
H 1.2608474435416366 2.398750078253124 -0.7994192169249951
H 2.679381219488497 3.3099010001476215 -1.3361650304075878
H 2.6114149303617826 2.716266935659785 0.32415720302479556
H 4.86251633539108 0.6114095491608036 -1.0505589597612353