16

C 1.998753730020296 -1.0760470866195226 -0.49411673586193067
C 2.271764523884475 0.2935506685360254 0.10836640159038083
N 2.8254582368197894 0.22837453711809266 1.452426234618548
C 2.0200185670757262 0.06020878735541076 2.5602371838298685
C 0.691168369462461 -0.05564692212632909 2.573795904566122
C 4.185673433678401 0.3070188767246849 1.6002317204268546
O 4.979407221933166 0.44572405411973953 0.7073843809662866
H 1.5628381031009901 -0.9623464473809523 -1.482669100397603
H 1.321746828890243 -1.6598694713270365 0.12540020328285384
H 2.931524355841488 -1.6266534503597097 -0.5958539228865929
H 1.3616803534492974 0.895569446390554 0.15568626017412018
H 2.997273767943003 0.8395672184449191 -0.4963533547313883
H 2.581503367079849 0.024066074987864762 3.4873176965792116
H 0.08160889005857401 -0.05023736786314199 1.6791893509611218
H 0.18406260402745256 -0.17474209177523994 3.5296081125420877
H 4.486578050248628 0.2507625062087192 2.667957812369097