20

C 0.6369834667524358 -0.45025217831820435 -0.03148376385196713
C 1.824995328775439 -0.7994779275399491 0.8453537910538447
N 2.8115916860545314 0.2653768715512549 0.9451448393919896
C 2.3136081051486896 1.3954810987439177 1.7084385559610942
C 4.079640860450129 -0.20929738086293298 1.4467687076117408
C 4.878211646128143 -0.8949218597442504 0.3547853515780095
O 4.976158631442218 -0.061952021606669495 -0.770520375867906
H -0.01618023180287091 -1.3281914403292137 -0.13674386126557656
H 0.9633235252709281 -0.15298573663648354 -1.0352326931157931
H 0.03875311693175645 0.35354626164873176 0.3818631580251665
H 2.3284215866703946 -1.671810436218203 0.4239642615760012
H 1.4773367923636067 -1.0926124066801859 1.8454552882311424
H 1.4216151956782312 1.8073171914722983 1.241860966442943
H 3.0644258423208863 2.185178219364741 1.7273658961205103
H 2.0639952845861367 1.1307089713453577 2.749494014242894
H 3.960407028016915 -0.8797576944941602 2.3210631960199413
H 4.661224835901636 0.6559884465736315 1.790717918602928
H 4.414972752437456 -1.8589231926225733 0.08447225798490814
H 5.890577888773171 -1.1113626534663998 0.7123990999298452
H 4.129543550188782 0.3947426650442472 -0.814741759109857