18

C 2.3793587949122803 1.8259925515673616 -0.38304977684410074
C 2.606989511424039 0.3550222130682537 -0.09343051530152156
N 2.963516166669648 -0.41409128323391203 -1.2681533767847957
C 1.8643315890931813 -0.9466158173409114 -2.0424778763462856
C 4.272880727370441 -0.5466011620725173 -1.5898747466415648
C 4.637885114036 -1.360844686720734 -2.811901985599681
O 5.1466161553634 -0.03149024203938266 -0.9103410499886335
H 2.074548793218867 2.35393660493388 0.5246430209785923
H 1.578683437043761 1.965017704659133 -1.1319709572199927
H 3.290805433354354 2.284544360209846 -0.762292303085943
H 1.7104380609136771 -0.09508795849323483 0.33876682949325043
H 3.4244663175705123 0.2437080674294811 0.6212402860631472
H 1.3165718089862288 -1.7070819697819737 -1.4828921963699295
H 2.219288397686209 -1.3913617114168744 -2.966264490666378
H 1.1634646617712554 -0.1462084181518237 -2.309785895955777
H 4.263622744031952 -0.8971381506992374 -3.7236435138361275
H 4.229738653085843 -2.3778495390043575 -2.7601977943944065
H 5.715069179470256 -1.4154847321837551 -2.8583028761203146