18

C 1.3040690504007475 0.9666269539326353 -1.310598256967895
C 2.7064924379081616 0.991417603647443 -0.759953676643022
N 3.0442900196332565 -0.26286349898531647 -0.13958832748382985
C 4.3802319840835136 -0.34478626760635983 0.36084464949565603
C 4.868860747538149 -1.7809006751146945 0.4402837383867577
C 6.088332212402353 -2.0182775868270038 1.280322028107359
O 4.312087517967075 -2.665723493570728 -0.1505288228291843
H 1.0395158857043718 1.9238765623223733 -1.759023225276641
H 0.579819568379822 0.7470576153469055 -0.5240392047496545
H 1.1969896455234301 0.1970679261415343 -2.0870030034243885
H 2.7893248056494913 1.7815845649375366 -0.004911535668016917
H 3.415628519342883 1.2612303232551603 -1.5738883183191275
H 2.8807237467605247 -1.0485143477371965 -0.7585407786130642
H 4.471990008042154 0.11744656775682187 1.346688022675746
H 5.129582993677094 0.1686154554541479 -0.2823184647974452
H 5.77798209741456 -2.0947143187988626 2.336043820449473
H 6.80299549088033 -1.1961709430531533 1.2152575418101599
H 6.562745807011248 -2.9578589442203898 0.9948887709314703