15

C 1.1122090112306657 -0.02509956016317156 0.0001559806362622664
C 2.598713564188691 -0.08608057249616224 0.009533680475643512
N 3.099990975247124 -1.237942238860522 0.5326489160812765
C 3.3479715071123772 0.9333434959903255 -0.46408849840750277
C 4.777320460561663 0.9713618628080525 -0.49536474190493607
N 5.41336900110707 1.977723040780312 -0.9615102925688539
O 6.787633475054424 1.7780088883567593 -0.8929937061182502
H 0.7116740911770084 -0.10792496256806797 1.015877189463439
H 0.6904098993429484 -0.8508030174489527 -0.5939975011851315
H 0.7586517093737191 0.9159222372650937 -0.43013558752045994
H 2.480782636024931 -1.9516709160271268 0.8726110216963996
H 4.082506046254205 -1.4089047481960562 0.5997360709646882
H 2.8381973007081993 1.8049568570921326 -0.8560865056267918
H 5.362642828066076 0.12728366118676965 -0.12248338178135834
H 7.142390914523805 2.586428139025394 -1.2694195220683315