17

C 1.5806471727539648 0.7084376356700188 0.03028638524839269
C 3.0537647836638797 0.3473200426313723 -0.04840054088922293
N 3.556050143778259 -0.02309933944598546 1.2571920650510366
C 4.78968093104463 -0.2595195278993694 1.4323834459528195
C 5.888591456490141 -0.16855915612168085 0.4157434512171188
N 5.182075679567373 -0.6928658945136964 2.6719656906199645
O 4.183181138987895 -0.5953820023723424 3.6369184998173316
H 1.1978051947318327 0.9805143182775298 -0.9489264741967154
H 1.4343500272866871 1.5584943995246043 0.7054297315722553
H 0.9982064235580664 -0.12852662095574463 0.4154778236426048
H 3.621266279115208 1.192115550556532 -0.46025859129850216
H 3.1842096693533555 -0.4886387727934277 -0.7470671627409057
H 5.686726346642686 -0.8597360708721271 -0.41023309534778807
H 6.854822795672188 -0.42246006809228737 0.843757783943832
H 5.932740624767601 0.8378501204985475 -0.0053458271039832595
H 6.029765699822831 -0.2807936299253251 3.0243516522962803
H 3.43034880689611 -0.27126193904750584 3.079113300223112