16

C 0.8315958456822504 0.07882073922188212 0.19388968321477681
C 2.348680115613299 0.04446324939727034 0.23110781856647072
N 2.926557074582569 0.5064865414371553 1.4960010187207384
C 2.892258753572556 -1.3498735400604716 -0.03560412754957033
C 2.6779533659104153 -1.8388281052924877 -1.4381890047256212
O 2.9352008380625794 -3.151322093561804 -1.5530251883785504
O 2.3636868134088407 -1.1629083494219024 -2.377048511592154
H 0.46457611698439627 1.0905101525719665 0.3810417586679103
H 0.40652849273279995 -0.5760493707032788 0.9666388959062915
H 0.4476792220848005 -0.24030410670584995 -0.775542809454367
H 2.735394320425481 0.6968991156866762 -0.554034942287541
H 2.556741904087721 -0.030521599017425197 2.2728999521389577
H 2.6562285218377077 1.4644483091714489 1.6581609284727343
H 2.4599825985253 -2.0871031571105094 0.6524433779206482
H 3.9678927694551915 -1.3630150341323535 0.15581719320414378
H 2.8120136508120757 -3.372737984235883 -2.484686400541018