13

C 2.216186261086424 1.3744184091994756 -0.06749391697847579
C 3.373003409521961 0.743335307741331 0.06227607345477086
N 3.4526801300062 -0.6321873608546756 0.23668741985426864
C 4.613491068036682 -1.1422131801024322 0.3431197776456705
N 4.767457365872734 -2.4960626149528133 0.5203968916636131
C 5.982400791456634 -3.121351321547997 0.6472776513728363
O 6.106195134514787 -4.312457368419488 0.803106530316842
H 2.1731951586450164 2.445351001930839 -0.19597899495902565
H 1.2788703472071798 0.8174568957919279 -0.03218429549214182
H 4.3162208103394475 1.3042805950532959 0.03581730080000593
H 5.545303410744339 -0.5784067994107076 0.31886415718968075
H 3.9388462969851084 -3.065920047710516 0.5520877951755578
H 6.8299095270657 -2.423727461488779 0.5996103459136762