17

C 2.361572566490691 0.11299537978845292 0.1541592658928321
C 3.8070732402652645 -0.31822939196978817 0.007310241223018044
N 4.579527895127885 0.6691215057665513 -0.7047537561748026
C 5.202409365014667 0.3368517550238966 -1.761883798691222
N 6.00520879802481 1.2357751264741097 -2.387953403151326
C 6.176788346901867 1.2227807647381457 -3.81613725937055
O 5.865447210492281 2.528835939996794 -1.898317391574356
H 1.8064058913369347 -0.6181557609061932 0.751104240095416
H 1.8752508964888601 0.21235435934893945 -0.8146188111108704
H 2.307928771703928 1.0791360261523801 0.6594470419643584
H 3.8605946098445374 -1.296354274820689 -0.5005294754705624
H 4.24646275201433 -0.4494456517153455 0.9959018092461118
H 5.211664239997712 -0.6628670065190798 -2.2024373438134877
H 6.281195240257888 0.18263217147014613 -4.138651427074983
H 7.08300181324409 1.7663284127795553 -4.072355279668461
H 5.3313492511012255 1.6852876601520481 -4.329466780761447
H 5.255561325336709 2.375454772135232 -1.13824068757003