15

C 3.2524179604629078 -0.42312785429173616 -1.4073367556086618
C 4.174605804775174 -0.36843461332487687 -0.20863754295044942
N 3.8697334665041274 0.780219925784456 0.6203089909156336
C 4.559186803131495 0.9588066898429012 1.6590158830609496
N 4.321596587493886 2.034090827791225 2.4974979892191307
C 5.029610042107769 2.2957006845666923 3.6409695195980194
O 4.818788685723767 3.2292503961369485 4.362047054885022
H 3.474081157333966 -1.2957810271198444 -2.0262138930368647
H 3.358387424818832 0.473324990844081 -2.0085083064039835
H 2.2091650818801543 -0.48798340513850313 -1.0864457928137123
H 5.2178505613636785 -0.33138064615729357 -0.5463798119764294
H 4.070727066990385 -1.299867238506557 0.3767359469351052
H 5.37234644755436 0.3131698741054563 1.9965005625012027
H 3.58197708818824 2.670530551732618 2.239632079551031
H 5.815746638279854 1.5403272214793609 3.8351521241949227