17

C 1.1305846216596844 -0.15115072125788973 0.496821566998225
C 2.4913166177680734 -0.11960330389012254 -0.16868978425908138
N 3.506308641991554 -0.6124821311028855 0.7224173682772237
C 4.811719368624535 -0.7264919546245773 0.3706775892118575
N 5.375695870013994 -0.35253155187918683 -0.7111159436253391
C 5.686860594047307 -1.3316621706949077 1.4537468842198162
O 5.003517733396958 -2.264754614899781 2.2755493910372944
H 0.3673668689772749 0.22579788579608392 -0.18130086149917274
H 1.1213020617175633 0.46444158153639603 1.3970168126237767
H 0.8523977356074292 -1.1768983700945894 0.7767523527757433
H 2.726608370836061 0.9076768172861415 -0.4623733471934264
H 2.465087305009543 -0.7189844681169741 -1.0919288568179586
H 3.2365596220187873 -1.1033085041981892 1.5552915639748228
H 4.721587202131414 0.09919454213126355 -1.350472557157912
H 6.014372013716447 -0.5223745321107428 2.108749131316021
H 6.572642550957943 -1.7539490274948497 0.9697672579490355
H 4.922239245528034 -3.0836929936495885 1.790173587517718