17

C 1.3143368562060798 -0.012751678848096722 0.23000122897588415
C 2.7783826026965786 -0.28220598245666695 -0.08688203353916532
N 3.2909433047593377 0.6838195289203691 -1.0196859496172277
C 4.238080563465878 1.4237871559390713 -0.642946065068989
N 4.69684445155367 2.473910448155381 -1.415227220181447
O 6.072119170936674 2.70140295784062 -1.2579230468419502
C 6.294851603185911 4.050451095471871 -0.922738299505291
H 0.9099021989387911 -0.7945466405263547 0.8899198171579257
H 0.7274595349665706 0.011350165591681838 -0.6840933062003772
H 1.2034214946924504 0.9502054714235687 0.7365000679918972
H 2.857239439811112 -1.2713641984845858 -0.5568740170631269
H 3.371279090250881 -0.3171261226279152 0.8447206963633628
H 4.74966126433976 1.3546205763013404 0.33633232566605104
H 4.483505515719084 2.356266144888908 -2.391802585706573
H 7.371549140480605 4.159515882636612 -0.8118475584469239
H 5.791050358805584 4.316105201215489 0.01592249537629033
H 5.94021603782779 4.722069570993504 -1.7182787195122502