12

C 0.9838041640995103 -0.06322201634638917 -0.01278518103519034
C 2.312581306341389 0.0861159003630769 0.035838842644272624
N 3.023869168366725 0.741691113299225 -0.9585322542411988
C 4.370236308311233 0.9580857418983239 -1.0168276573134223
O 4.908646820065885 1.53889688069106 -1.9299070008190657
C 3.07023413966406 -0.4377801637380819 1.1348785923712943
C 3.677607442091502 -0.8839883498763543 2.05959365361638
H 0.4017686672363258 0.33026593772196894 -0.8406018559707903
H 0.4726894009586041 -0.5877678928470351 0.777111360461158
H 2.4968758491091356 1.1166784781965453 -1.739420081465482
H 4.906839465628754 0.5336349125320341 -0.15737248800863704
H 4.211510198811388 -1.287001936780255 2.888997136437844