18

C 1.1059310998407732 -0.681705527081385 -0.31322439644652583
C 2.5045640947482455 -0.14102452507356938 -0.10465841868497358
N 3.2995480742483685 0.027447473278439858 -1.3170421856472374
C 2.5531234299402605 1.1955286086565469 0.655018768995767
O 3.8960636174289953 1.5732218036404577 0.8152186954156964
C 1.7273164571691193 2.2601697448659652 -0.007781720621055523
C 2.2087237875785353 3.3903612744408216 -0.5071133322253357
H 1.1382941698233606 -1.6904764796175236 -0.7358732683193461
H 0.5408749636872088 -0.057824168028420546 -1.014697630489459
H 0.5493533919824786 -0.738447223434099 0.6207856890089132
H 3.0670670786431518 -0.8481149353496436 0.5228637999197774
H 2.778059343022342 0.5725181332616646 -2.003087056313702
H 3.5309001370327135 -0.8570556619404022 -1.7418940557682578
H 2.1527006684350307 1.0230026114366122 1.6614574712564092
H 4.323556295798239 1.2681915636290413 -0.01191737211987718
H 0.6547373739109826 2.061043108167251 -0.051785878479276286
H 3.2671374294233257 3.617483113374924 -0.43859817984242844
H 1.5552363038991803 4.125792598044029 -0.9654110309017924