14

C 1.0402450747506875 -0.41076991617147574 0.4326899152414124
C 2.4440518797025654 0.06958033626714097 0.05838657996222528
N 2.489970214757984 0.6511407863925734 -1.2681911249225823
C 2.7138680088095097 -0.09514683051249516 -2.3644141869780726
O 2.876858471324333 -1.2965290074313904 -2.3624015930261306
C 2.9653301664327216 1.0210997613284416 1.0393802282525693
C 3.3654844662036085 1.818696638665672 1.8415697894346044
H 0.7077709274477708 -1.145197802116012 -0.30408097241849014
H 0.34162995738319546 0.42679972588385146 0.46054603947653144
H 1.0518217057470018 -0.8827178951492101 1.420719765987339
H 3.1144902237576857 -0.7984284221039042 0.025370205151547632
H 2.3702808109807716 1.6431903791734044 -1.3594748037291566
H 2.7301482523757734 0.5103965077077354 -3.290875659644517
H 3.730571460312922 2.5087188894945807 2.558860459002712