16

C 2.5686626366082197 0.2945092879280627 -1.5584984262963084
C 2.675045896797198 -0.016891402286062302 -0.07506308205742218
N 3.2332807540516453 1.067674069738931 0.6937460763471963
C 4.551528937212844 1.1227300378171836 1.0369663533323417
O 5.3321920909466485 0.23683017400234901 0.7699600826519719
C 4.92892742326118 2.3572664631894455 1.7820096307184599
C 6.179712788870464 2.54314492971936 2.1754749559557056
H 2.1333683278492983 -0.5559495612437597 -2.085873517847947
H 3.555019071610632 0.5025942628366044 -1.9697546579901568
H 1.9238257530350944 1.1641449025926955 -1.7379149501460793
H 3.3305947014102744 -0.8730744751009724 0.09081206521218332
H 1.6898181541035624 -0.2615897848835045 0.34363168846239245
H 2.660771413219333 1.86964093881669 0.8982427463413847
H 4.161656552435276 3.1023209181810065 1.9833308830849223
H 6.927956578031246 1.787274481727755 1.9626193125768598
H 6.488418235826256 3.433034279493 2.716583845022424