11

C 1.0110675061719707 -0.06557531965420536 0.12143500924880161
C 2.336964807556403 -0.05075452513275818 0.07518281586632238
N 3.0961143470683568 1.1074762947840093 -0.05204674689635814
C 4.453933375013825 1.0916160414367018 -0.1014463474024023
O 5.162926970941439 0.12248319937320819 -0.03892813650510625
C 5.019694028681404 2.4471780371502185 -0.23729893660906473
N 5.484643363732737 3.492483946840552 -0.34700693776778274
H 0.4909986900164312 -1.0081783208239028 0.22736755716512416
H 0.42336793048449206 0.8360400684934884 0.06279179306331548
H 2.9434013101654983 -0.9536079407342021 0.1275185188987056
H 2.6317334320119534 1.9939060312178185 -0.11382839299077238