12

C 1.0828910880852805 0.3988189483746793 -0.24931044039551584
C 2.311006820634043 -0.022112089855432265 0.04232261635040573
N 3.1467138253449725 -0.674365938334849 -0.8497437049881538
C 4.389433036711348 -1.1068989947376728 -0.5304557990551804
O 4.946171732736099 -0.9959822242313251 0.5409298069622588
C 5.085370360387701 -1.7851635569911675 -1.703012184044168
O 4.577712871313584 -1.9196325053200667 -2.7778545993362975
H 0.48775868227427865 0.9053448046084351 0.49923348371334253
H 0.6463106694529533 0.26570278428390764 -1.230441189995364
H 2.758824938697158 0.10023098619551285 1.02750869390897
H 2.840758590849722 -0.8507113047813717 -1.7963061849979554
H 6.102841517808249 -2.142095706981865 -1.454188596901327