18

C 1.3451949492265263 0.7151441748197463 1.0830783752439361
C 2.488261216192768 0.030581152239511154 0.335933413294498
N 3.1773418954893455 -0.9916208075804885 1.1161737379778205
C 2.0484256737206668 -0.6177367177526362 -0.9715054930751713
O 1.105107075733043 -1.6232660806790329 -0.6655099465832077
C 1.4631029536236768 0.35338000104137796 -1.9841607528822245
O 1.0326470252474675 -0.34499721906950875 -3.1376664311863087
H 1.7104703024531858 1.1054855094416252 2.033404980176943
H 0.5469646453163217 0.0013367123561988112 1.286654590859628
H 0.9260560005132809 1.549408582026779 0.5248649424110423
H 3.2371158858742115 0.7935416051868621 0.06669851577854276
H 2.542448908842604 -1.7722237754325023 1.2589559248190516
H 3.421108860627321 -0.6360872959942532 2.026148821036411
H 2.9446038389340616 -1.0767882639944162 -1.415150193405955
H 0.6827268591758814 -1.8549849364374353 -1.5041719996945995
H 2.1865970646059747 1.1383933521826188 -2.2317045949938974
H 0.5595768758555928 0.8254207767770027 -1.5791281361476015
H 1.812994702755283 -0.6469090858428309 -3.617675569904167