14

C 1.049369265288991 0.20954747983258523 0.06858655391215028
C 2.505680281457976 -0.054682979363874396 -0.30791369801425567
N 2.7883579396609908 -1.426344845486922 -0.6110131991465939
C 2.9012637811956257 -2.3683630806152074 0.3474446493628006
O 2.7070749800246725 -2.1775960945301525 1.523300750815202
C 2.8912149615083793 0.7989385422988565 -1.4841682398665663
O 3.3199526636356302 0.36879096623825014 -2.517939046266988
H 0.8023476548037721 -0.37453559420528054 0.9557023012364044
H 0.388287254615259 -0.09417663140966304 -0.7463510638227185
H 0.883659063734762 1.2615184689953363 0.2888360803961097
H 3.1295200221965693 0.26220678823122756 0.5489900389020176
H 3.0662521075864224 -1.6238594627316616 -1.560018207834064
H 3.188530747247697 -3.3493332749892066 -0.05553982680869095
H 2.733229241040794 1.8903610097715688 -1.3325571072303772