14

C 1.6171394902949199 0.17817432480911471 1.0985009510903363
C 2.5183060635854635 0.1345836233099494 -0.1132685492070519
N 1.7909105899560085 0.08162443806904633 -1.360786166645723
C 1.7611154456654865 -0.9908287790280133 -2.1657245622403662
O 2.350786881274615 -2.0435119883416237 -2.0059807624933543
C 0.8824192114210193 -0.7937247755135967 -3.397056796286659
O 0.26052782749028175 0.2082442719637902 -3.614949237996557
H 2.210331716978374 0.2169819699460081 2.0156552119484106
H 0.9843889851382205 -0.7164999432388199 1.1444596714027335
H 0.9599841097248583 1.0521734120497457 1.0809371123346887
H 3.1543989721968524 -0.7590130732976791 -0.09848175998336081
H 3.184991669595536 1.0084621213929288 -0.13445913191308131
H 1.2160287825964313 0.8636671375668303 -1.650826365405622
H 0.8797967500668863 -1.6701907340295001 -4.0684684665930595