17

C 0.9438777876025819 0.2191451434957465 -0.43483823743797034
C 2.4086839017110693 0.0014543534249894636 -0.10846502960337574
N 3.200640726931194 0.046221889855788026 -1.309331177137538
C 4.56017757940367 -0.12095634991279791 -1.264713169478186
O 5.1543883610661005 -0.32338701014584537 -0.2148342713867127
N 5.199430185530732 -0.062475926025827806 -2.4652333200609964
C 6.635114260182379 -0.22542194136058308 -2.532976134610377
H 0.3418227184980726 0.19018070305704357 0.4749880143943218
H 0.5688981743352866 -0.5489265942595067 -1.1110738816401882
H 0.7813971641901153 1.1957456900882495 -0.9047527097487157
H 2.5410845255490746 -0.9572008763395626 0.38744572198307353
H 2.7576552895865563 0.7619775606476223 0.5977241336154289
H 2.7401056771358316 0.206921684877099 -2.1848102590023255
H 4.6931548449060525 0.09567435255183894 -3.3070138583159596
H 6.931259629932124 -1.2093637795484875 -2.148422687339259
H 7.15274202471321 0.5340898037374915 -1.946269274721506
H 6.94184132415597 -0.1399620762385683 -3.566068138307098