16

C 1.9917290100128422 1.5483116139953028 -0.14222529152483884
C 2.475547796700711 0.12126557234113484 0.03751559616378281
N 3.1120388149526925 -0.42927919528290515 -1.135629803214991
C 4.446660025074416 -0.37992379646074126 -1.3186320681253934
O 5.261599130182554 0.00373151524936122 -0.5082638004563123
O 4.766990814338129 -0.8530597606011395 -2.546093566441017
C 6.15564829417082 -0.8622721054814524 -2.8220700412588364
H 1.5268133659451002 1.911641233821474 0.771779857635568
H 1.2618618597884959 1.6137021386456936 -0.9548307132175033
H 2.8355820681243253 2.2058954331421985 -0.3864132249968148
H 1.6460642157277996 -0.534988614878367 0.3225418886226355
H 3.216551300909242 0.07138546123920113 0.8495318697277477
H 2.5489806734022786 -0.6910624669492378 -1.9208202934831893
H 6.246287619265797 -1.2445351476115118 -3.840843483565167
H 6.690582415826892 -1.5192843573073653 -2.1254172976938923
H 6.587132442110846 0.13518807648270134 -2.7501571608542545