15

C 1.3190067265965386 0.9644734810474714 -0.23096226921661303
C 2.5322694008495996 0.1971203747697309 0.16759043699718987
N 2.8032625595380427 -0.1445813594507183 1.3684389821360554
N 1.905323787957932 0.12783442761715905 2.341866760354725
C 3.5157318345328674 -0.2329593073839951 -0.8466061720140737
C 3.122676381860851 -0.6400255860960729 -2.2068148259099107
O 3.714186184016415 0.6260507616071948 -1.9627638658499533
H 1.23972996987083 1.9008859226420693 0.3222156057967157
H 0.4049010163030456 0.39704817659541647 -0.030093584543078877
H 1.3558206663604908 1.2229942310839588 -1.2896918857250923
H 1.3194369823261278 0.9431047194125681 2.1984378261966824
H 2.362687029468345 0.13571196142273312 3.251241414601489
H 4.416941483317448 -0.669226764656074 -0.4239078881716413
H 2.0779466393032338 -0.6164809659073917 -2.4961999191182294
H 3.740660889457669 -1.3494743997435699 -2.7386032108449476