15

C 1.0544807011544246 0.4873775046486084 -0.7909713397218932
C 2.5012219997596694 0.22883103660183865 -0.5974459233596456
N 3.247359514012932 -0.12572289162863276 -1.5656407394615917
N 4.5640493887326 -0.31780670949577416 -1.1636113351814559
C 5.343442931235384 -0.5708598374155437 -2.1389980596949147
C 6.796028603776613 -0.8080920638245463 -1.8996095495160579
O 7.214161141114166 -2.034010874548981 -2.472484755199917
H 0.8098627445406937 1.5088412826380775 -0.5068362480012839
H 0.46094539877832263 -0.1707582079240073 -0.15162252958059386
H 0.7759658348370783 0.31908735352520473 -1.84020748298659
H 2.9242049976282987 0.3357164754626791 0.405669161806042
H 4.962035076490217 -0.6285964451120518 -3.1551402900050127
H 7.004923622619635 -0.7556786216556572 -0.8278353439410858
H 7.382790495859154 -0.0327024751745786 -2.413810256689161
H 6.742977596178089 -2.7455474835418014 -2.0199930795656265