15

C 1.5637628197961362 0.0548476073290297 -1.3148149457056537
C 2.983099584740687 0.37435613759128505 -0.9375590573807415
N 3.7604338097940535 1.177130512200376 -1.5466092143703853
N 3.397395353337466 -0.3278820332792664 0.18377837995966778
C 4.5999279507089375 -0.3686886603173714 0.8827251595360096
C 5.731585319111664 0.47846205572375844 0.4066226289128242
O 4.669834269561689 -1.0853746533128366 1.8495044286012343
H 1.2633745729381858 0.6254795849749387 -2.1976257088486335
H 0.8847021132076488 0.30607637669603055 -0.48962757245839467
H 1.4392761419526834 -1.0094738412626965 -1.5242598075428897
H 3.273134001641168 1.585339309992399 -2.3367680400985043
H 2.713630957094886 -0.9482694669439905 0.6032360432074488
H 5.450037480931131 1.5319096755646324 0.3978877293980174
H 5.99634260375423 0.2407926194831687 -0.616014570606738
H 6.5701625185284405 0.3150412882212188 1.0835851472547178