17

C 2.6508068955548976 -0.8221383333061386 -1.6336406092729743
C 2.9773933485633983 -0.0031968777175075454 -0.3901055881690132
N 3.2144213017317114 -0.8056018078160442 0.7843770681529025
N 2.067382637382718 -1.4282405487902072 1.2993023681724687
C 4.430628865406017 -1.152908554614954 1.2995421716252997
C 5.653729036171162 -0.5308026689873959 0.6697512041136074
O 4.513067089380178 -1.936109464524443 2.228407733703991
H 2.4207084800391705 -0.17099554748963533 -2.4693396783763597
H 1.7900927418919523 -1.4655244138044485 -1.4447416148205068
H 3.493781953254356 -1.4641817997623916 -1.9061705129375455
H 2.1338791635380105 0.6707169562599448 -0.16675611689689407
H 3.845182756529919 0.6298878910621296 -0.566000352928883
H 1.9170395425552074 -1.070751135534105 2.237877684483108
H 2.2896673562984677 -2.4077906966665084 1.4410425547807997
H 5.654704135485247 0.5522626729114561 0.7986074561520216
H 5.716693867612874 -0.7425879583570867 -0.3965932380115987
H 6.518058931195221 -0.9497827620323441 1.1657803343474478