17

C 1.43653330106968 -0.6809292728779898 0.24803032034424488
C 2.7839918397824848 -0.23609305082143148 0.7904150743540153
N 3.592704898288895 0.3091337682112736 -0.30464154237339297
N 4.8051521661483045 0.8199924503616042 0.14443530972116603
C 5.94853093812205 -0.031113515260681818 0.011388986703034903
C 4.881191655947698 2.1335753407422318 0.46156569422659754
O 3.9388231239729805 2.894873860082072 0.44939700309059255
H 0.8366968234939539 -1.1220745303112145 1.0499755485671824
H 1.5601211806076178 -1.4172541724855026 -0.5382099508911135
H 0.8839572784777805 0.16875274660077588 -0.1604332745967681
H 3.320211486932333 -1.0961299455869524 1.2093956935764478
H 2.650642101463667 0.5030376373779335 1.5888281817474823
H 3.090904928594364 1.1091293058048093 -0.7020473883466267
H 5.829390613381859 -0.9413282722670859 0.5849627326059209
H 6.83548728508109 0.4974235153860781 0.37975103059885734
H 6.113241515745091 -0.2935143776282593 -1.039360249115593
H 5.9081285998119615 2.445366602029849 0.7278367175751267