15

C 3.0251301690141914 -1.5798192459462406 -0.25800316220504677
C 2.588217562442387 -0.18313018982333323 0.07324593440773611
N 1.4012543313639667 0.28767259316739546 -0.011386525224406282
N 3.5390446075436013 0.6957548293956864 0.48989409864515104
O 3.0684525564536056 1.955961830752785 0.7660360036797729
C 4.885943955404954 0.5002807508372062 0.6723121198285438
C 5.749277801061017 1.4166352016646164 1.0917948404147642
H 2.161479941091523 -2.160175933363715 -0.5769351601344472
H 3.4641435347676666 -2.06685976474811 0.6180662069904377
H 3.7657796146199196 -1.5943333712755567 -1.055884145509323
H 0.7285162135159915 -0.39754473103639987 -0.3202182217820697
H 2.1103161143537994 1.8349188271599008 0.5610709041466106
H 5.198202300741194 -0.5137016467468491 0.4342384191125049
H 5.430096705790442 2.4309146551018674 1.327118004225759
H 6.788288567759973 1.156345753224559 1.2017879072551076