17

C 2.3217983458987357 0.7223416325918053 1.5025424028245151
C 2.7532583954117067 0.022294364536263635 0.21998341566519689
N 3.291322600277113 0.9069757156842092 -0.8033064335048367
O 2.2932449165791735 1.8130714239249457 -1.2047101797975441
C 4.528994884466565 1.532371571439018 -0.6113028445154496
C 5.5931161201577595 0.6403061025648119 -0.040347524995716776
N 4.814009282309423 2.7127891029656857 -0.9659896843629672
H 1.8970896852932477 0.009397350895072123 2.2014883091195103
H 1.5693065380615723 1.49050617063172 1.2908410803200283
H 3.170857789325513 1.2133466518812894 1.9901802938676272
H 1.8983657745652442 -0.4946442721856897 -0.22816780788137445
H 3.5136311540491802 -0.7292380233640342 0.417882202832745
H 2.1262095882332845 1.5724561612202668 -2.1255393392588298
H 5.634504658242501 -0.3194720589806088 -0.5507527040150889
H 5.414777360193805 0.448194407683201 1.023172594089872
H 6.545744489431162 1.158273848556518 -0.14201109849191032
H 3.9799721750840673 3.1834850841412097 -1.3079475028031344