16

C 2.2403054485167098 1.0841055757192997 -4.151323410861764
C 3.163876582422678 1.5247319999859221 -3.0712615468209172
N 4.327716727705308 1.0268904804827417 -2.9739294166962016
O 5.031104073606936 1.5490809203385418 -1.9113773626216166
C 6.353460322219404 1.00768295278197 -1.8876687351358488
C 6.397254829366423 -0.4862714462658506 -1.6770219641377961
O 6.063772671513648 -1.218440789711405 -2.829643013836954
H 1.3226567790149613 0.6755030066221404 -3.714031691179832
H 2.707171351246754 0.32696079291146823 -4.775134177996152
H 1.9464758057341183 1.93581367287056 -4.769089807211402
H 2.852069403527619 2.2905925651003805 -2.36192157968208
H 6.826941061397682 1.5256516848381427 -1.0535553482721602
H 6.882186824773976 1.272572649668016 -2.8167592155666688
H 5.7429123276954295 -0.7456557272628577 -0.8368815649810862
H 7.420413575120551 -0.7679227603809047 -1.4014171859019473
H 5.310314511579564 -0.7697726052306818 -3.2305127219613428