14

C 0.19547100306274126 0.5741297517732397 -2.0065206792767896
C 0.4518464529829456 0.43402563658378673 -0.5478979363968441
N 1.630774998221865 0.24796118438853243 -0.13342953509814348
O 1.6414746821476631 0.15262669481436228 1.2565829690915558
C 2.8812364650145077 -0.05084924377508591 1.7847692626716192
C 2.759725912857773 -0.14028993505258158 3.2797041938238096
O 3.8875974380273783 -0.13747427544253435 1.1491954745650375
H -0.5105024737363006 -0.1952258155391524 -2.340341733674615
H 1.1230980172461222 0.48859547079461124 -2.5697999035984447
H -0.27305998992376584 1.5380336799883219 -2.221255413408871
H -0.3845467335666586 0.5052185922700034 0.15262186070125458
H 2.3210351976228725 0.7853547088419615 3.6784781339079413
H 3.7444149465871197 -0.2980726153163719 3.706462702190484
H 2.0969044756930963 -0.9539540060077042 3.5498166880092654