16

C 2.5436235362489934 -1.415235855927247 0.24944055320170244
C 2.960669716612584 0.032998840533062526 0.4689175753379011
N 3.329822092937309 0.6980967471525699 -0.7459771443779485
O 2.2659648462011703 0.901661357518984 -1.6025939792916242
C 4.516417584361927 1.119834816629029 -1.2087853274917095
C 5.7207278621498965 0.9331902383173056 -0.3341288265609618
O 4.563143310899431 1.6397002853477773 -2.321072476061973
H 2.232045254685313 -1.8676394984799338 1.1952833976803714
H 3.3664423475756515 -2.005090127670132 -0.1608117526917967
H 1.7122586559542903 -1.4707989533661678 -0.4474989149852546
H 3.818191995079917 0.09460861629304843 1.1415794606330365
H 2.1412190292877487 0.5968405541286825 0.9342753508214494
H 2.741539631710273 1.3290187940732021 -2.3508548032368823
H 5.64591600210902 1.527051929456294 0.5848799999849879
H 6.5905495248032695 1.262422402348317 -0.8961312808689608
H 5.862477369179566 -0.1165305130333556 -0.051736545836486195