18

C 2.7917596050243927 1.4444914351767633 0.4758127636426774
C 2.397731651199172 0.073831609194548 -0.037151731740869456
O 2.8876212644954755 -0.14047468640818087 -1.3443667774142376
C 2.9023444458204195 -1.019390783285104 0.883835378973616
C 3.0492333155624256 -2.4131060282365304 0.42368879059424513
N 4.2108658745986585 -1.543782603879519 0.5510079636013396
C 5.11796308726964 -1.8101765556355955 1.637603739747624
H 2.458812793218431 2.21776257715118 -0.21362355344715825
H 3.8802295166273955 1.5183453955519042 0.5668523168525883
H 2.348470486399985 1.6446932718777139 1.460063804609008
H 1.3066221054784655 0.009866003660789349 -0.09752913750909589
H 3.7879523588161286 -0.4816206350332453 -1.234271460505138
H 2.688009216079103 -0.8740268795161991 1.941297693367241
H 2.7763028990592082 -2.6908563866437483 -0.5836788790040599
H 2.937505116238974 -3.1978215652041366 1.1808534596997329
H 5.844684112245209 -2.575642830251465 1.3243649948951521
H 4.605044801601124 -2.173564813953933 2.5403253490794007
H 5.663071646898362 -0.9027459205174883 1.8973947339176533