18

C 1.0110875513453652 -1.952273254451812 -0.5032804181254755
C 2.3882281289479694 -1.798152776652331 -1.0912895172831367
O 3.233251897666241 -1.1916811737438466 -0.13486693208940018
C 4.525936528309557 -0.9762292559716459 -0.5988786325257766
C 5.470367192041857 -0.33980115600015676 0.42106056200733605
N 6.524028106573371 -1.247229709736952 -0.06800925534963283
C 5.512939674030199 -2.149934750170713 -0.6321284874483725
H 0.33874548873565147 -2.418172098190603 -1.2204178965658075
H 0.5997429038026876 -0.9828970367267279 -0.22195110133196244
H 1.0482751036108227 -2.5719243134204275 0.39479295129296327
H 2.3581702871393615 -1.1837266850539352 -1.997315856642227
H 2.795977460070081 -2.7736568428444395 -1.3760619811424348
H 4.505191186029633 -0.4277212406561321 -1.5484075692550519
H 5.11892981460356 -0.556044500310269 1.4333944857759224
H 5.689291252122484 0.7209998144225604 0.33166560849775545
H 7.116737044579808 -1.6470781853743202 0.6513095978713022
H 5.1763807609648484 -2.9409137996933854 0.05168000453578814
H 5.776763333391689 -2.5942943971835595 -1.6008234035827746