18

C 3.3003579370986214 -0.6547310108514763 -1.0746463754509679
C 2.474098414442014 -0.04510201063431757 0.049164069384270634
O 1.093864623950887 -0.35616006924318044 -0.1124145831084967
C 3.000768886404664 -0.44413701039493675 1.4173256123177265
C 2.210754017684859 -0.05150771652531609 2.6709029992305524
N 2.516757689173601 -1.3777718414957096 3.2445127637090274
C 2.85580539571013 -1.8925656464117564 1.904865776473774
H 2.9065182687142177 -0.3479356733866057 -2.044344321798333
H 3.2835119694017387 -1.7475603142624159 -1.0222756034175473
H 4.341941387158154 -0.33240292726466264 -1.0082098282024727
H 2.513473020236675 1.0397455321270115 -0.029186744188414458
H 1.015005289410037 -1.316651100174234 -0.20500082939595068
H 4.041587714361429 -0.11854240399826099 1.5007671261670028
H 1.1430271318985918 0.10402847955944051 2.4218681232726946
H 2.575184727279655 0.7963751764669728 3.2598044483602804
H 1.737581780567229 -1.8399291915720861 3.698380238436366
H 2.0219857191306714 -2.4185064793185527 1.4059830399979494
H 3.734822542043917 -2.539450414117366 1.8747901626814492