18

C 3.2406800417020394 0.6903433433374393 -1.2656149562362387
C 2.4974040931712906 -0.008318425495244662 -0.15406101143027087
O 2.4981925172736155 -1.4205926027725162 -0.34509211154579617
C 2.943765010415821 0.2975253709528089 1.2624798843939107
N 2.123391075961354 -0.2695613539124445 2.298454767598639
C 4.409060235451057 0.3424011212682504 1.5917631092389297
C 3.5944626439684995 1.6025150284941125 1.6238063631318742
H 2.8486582355648147 0.3516125124401244 -2.2269945874944366
H 4.316217311001248 0.4561898292639286 -1.2491803529711085
H 3.128245549017981 1.7713830082906072 -1.2215717144841727
H 1.431028626882089 0.2672363294949413 -0.2269169711801251
H 3.412033829384695 -1.715145219517926 -0.2617935430432292
H 1.9577093413013837 -1.2477357748072984 2.094324611047605
H 1.2147201378837091 0.18912628732660983 2.3112805562294954
H 5.134403394757122 0.23511728832085665 0.784655768123438
H 4.704202541562596 -0.0936952971588893 2.536530072040545
H 3.7658350846491966 2.3332566706283764 0.8548804088708558
H 3.342915457114404 2.00527159962275 2.5980848884296828