18

C 1.4425318406668544 0.5479810283449102 -0.7109253165168339
C 2.749760066019787 0.3137196573870595 0.0004909151219924524
O 3.3377627871151567 1.5528233904481423 0.29842261353427707
C 4.562192328779939 1.4400210971623266 0.9723891038864101
C 5.0916322046729565 2.799603141852702 1.3171895200857249
C 4.8582558918853325 3.9570483810931463 0.42862342610477305
N 4.1877379216320145 3.8570609525697104 1.723880890165314
H 0.9708938322884656 -0.4048761269444096 -0.9568573608256161
H 1.6047356399363761 1.1109218873746138 -1.634356624402053
H 0.7559256193805967 1.1232320182762143 -0.08017904794871425
H 3.434245065215128 -0.2727487868056202 -0.6384823942763812
H 2.5901311354087073 -0.2623179786533717 0.9258001900298741
H 5.296053579884587 0.891565710151593 0.3534601705831137
H 4.422369081917791 0.85671608341037 1.904712646012892
H 6.02086846323857 2.7605589943731745 1.8773199793964195
H 4.261160168466307 3.777756548467156 -0.4664397885772464
H 5.609422131460326 4.731939744026153 0.3462786527567829
H 3.232555201056859 3.5454139620128564 1.5696122006519224