20

C 1.0994098080382668 0.10822129563433086 -0.06928471554236146
C 2.6047983159238464 0.05217334882145587 -0.0778475078610184
O 3.1070560365701785 1.2984615325167896 0.3471220363515407
C 4.5085395257771665 1.3357892682227006 0.37503169409379616
C 4.975663648232152 2.7054100681242215 0.8282212532553478
C 4.614428968102609 3.813140554075392 -0.15058753861310004
N 5.132343649801125 5.091860317352846 0.3360362648481293
H 0.682124919326819 -0.8534467827464578 -0.39694223481058344
H 0.7343938253993083 0.8821000293857986 -0.7521913063305201
H 0.722925464156543 0.33216188798730767 0.9302709714477048
H 2.980545176257352 -0.1874467228631826 -1.0868008556373832
H 2.967834012239183 -0.7469201092524641 0.597790128701756
H 4.919026966203268 1.1094517969496955 -0.6261929108024872
H 4.894770974491098 0.5597226048530413 1.0577641599834708
H 6.058147791095025 2.680657787714512 0.9617080338191925
H 4.52513233735204 2.912330024253927 1.7990644792189392
H 3.5333361741692246 3.8005302027348 -0.31465300794988643
H 5.094179994019564 3.600035118639995 -1.1158556891676978
H 4.679269419242446 5.339194751098929 1.2069572781890154
H 4.92032028496882 5.822929488113562 -0.3221603511600254