12

C 3.38689436593156 0.12583687835380944 -1.0284680203353567
C 2.5495694747165425 -0.25812379354327064 0.156542678430017
O 1.351668079642897 -0.1391679190091717 0.1737279489100245
C 3.2594228360584023 -0.8284335310941047 1.3605830964604497
C 2.5634902462388194 -1.1892744465781193 2.438377409160733
C 4.678246767552996 -0.9553543419134876 1.3259332337066325
N 5.831206090399782 -1.0610453083628657 1.2567611484438075
H 2.7494484848072283 0.5006690864582176 -1.8188402707996363
H 3.9555899473564335 -0.7375966212868975 -1.377422592314809
H 4.121656530367763 0.8863791369123174 -0.7293861590689914
H 1.4893332155324175 -1.0680108970547668 2.4176427325620367
H 3.0392639197524636 -1.592059265841117 3.319741446078989