16

C 3.2149392105059675 -0.09696517704872759 -1.2330141199146423
C 2.457694163099997 -0.33365807547036735 0.05763711367154942
O 1.2367848885678163 -0.3653927415145 0.039434690442874315
C 3.180208914175022 -0.5185298962350288 1.3149449608645283
C 2.337157701973163 -0.7490921858274933 2.525427304889505
C 4.522794907573351 -0.4900040739456781 1.3285564192673534
N 5.340142489412298 -0.6457876123584454 2.4020064035713635
H 2.4859216530499806 0.02043845795957207 -2.034343260773975
H 3.8739193433706633 -0.9358880204518899 -1.4763691045610612
H 3.8183025296341 0.8117831801444936 -1.186834035075991
H 1.6521200537257035 0.08638195863459473 2.691934891233509
H 2.92887669066015 -0.8861326470428408 3.4335921220711287
H 1.7017044677799174 -1.6373451892172584 2.4035663400085028
H 5.069490434974429 -0.3162742459354901 0.39882490985974034
H 4.961715480334919 -0.8094196958290102 3.320150018528868
H 6.329267462070059 -0.6054186364822782 2.300018295199462