10

C 1.087033993425351 -0.054468753959896005 0.017074723985558544
C 2.577686885027365 -0.009144377417944704 0.09189646804627004
O 3.209224375996109 0.4983501127423928 0.9850195877366388
C 3.287058959362268 -0.6490031294942965 -1.018430846547117
C 3.862419907411616 -1.1712488228711186 -1.9321582319357358
C 4.528593566671826 -1.764131252654395 -2.9733923241200473
N 5.084025396140276 -2.2673842819030163 -3.8458202982964664
H 0.668941427927014 0.4452242208009815 0.8934828810103711
H 0.740810251722871 -1.0873810067031808 -0.025391842634679404
H 0.7425375469475116 0.43998004923773065 -0.8933253836319884