14

C 0.9907855546516482 -0.18627403360287864 -0.18501245012885612
C 2.4965467882383137 -0.1633303920052155 -0.19903046926561582
O 3.147635193163365 -0.828477492771536 -0.9634890662606408
C 3.162384432725365 0.7411246914336895 0.8190367846667305
C 4.683575865763044 0.682303914043205 0.7303465997755052
C 5.320439472837654 1.546453272711428 1.7038155230530412
N 5.8029773573008825 2.2476548015588373 2.4774403241756215
H 0.6259179639034383 -0.8497565399568103 -0.9625371611403292
H 0.6022150884708765 0.8262546613801495 -0.33733266404621537
H 0.632687758814496 -0.5187023955542248 0.7868089614364598
H 2.8119075851151156 0.4658179227910574 1.8180990185122725
H 2.807152608306819 1.7667605264436568 0.6613359005697609
H 5.017458593414419 0.9527088631028092 -0.2718821616529952
H 5.0332198477832675 -0.3497632376451729 0.8902495783129465