20

C 0.8748875220839931 0.20268200854601942 0.047963187191444656
C 2.3798640831566074 0.23215203260813272 -0.0429180100404063
O 2.815311199525704 1.202606802565122 -0.9859596460212252
C 3.0401946225105743 0.4393651925529134 1.3179908298406187
C 4.557114294860548 0.4198611946705307 1.29558196453858
C 5.170313546926407 -0.9498216269225295 1.003974956079069
N 4.765453806626519 -1.918803282171922 2.0125132568177335
H 0.427505528307398 0.08004899392405924 -0.9338119951425783
H 0.4904875068021277 1.1478775062593916 0.47813966050497203
H 0.5284323927484293 -0.6053424409581954 0.6887436761137056
H 2.7269254986110387 -0.7168769509339488 -0.4737368637098674
H 2.520621483470539 2.0636043523933436 -0.6829470482984671
H 2.670860680304183 -0.3330715741246197 1.9956334427604978
H 2.685566179196062 1.3984842442200174 1.7145219788862016
H 4.939334694727811 0.7679919827729188 2.263165582403206
H 4.921313252645308 1.1269690414086266 0.540825859648111
H 6.2582100098300195 -0.8324379894488438 0.9222187224032923
H 4.820664485885355 -1.3117345553617188 0.03136564735891169
H 5.164012481952691 -1.6771803307605917 2.918411831722189
H 5.106902686138541 -2.8470671035008213 1.7786778643752