14

C 0.9620209537976491 0.07654141720527409 -0.1563308474384427
C 2.4625126579958683 -0.0277826805986833 0.06339506647338822
O 3.1933684120654124 0.5844316738424005 -0.9834458816595626
C 2.862980273792635 0.5545709101998317 1.3771969705482006
C 3.406176460086683 -0.1400548659457123 2.3766898313417326
C 3.7689658802280435 0.44304592321123515 3.6148412181974603
N 4.06513485419267 0.8927609393932148 4.63479679491494
H 0.7003491639104684 -0.3444969197020697 -1.1335593437535436
H 0.6437875148030099 1.1192423496050112 -0.13082840909834068
H 0.4128093375038873 -0.45596806432678627 0.6219109001237115
H 2.7572539937111618 -1.0762625949414495 0.043780191105280176
H 2.8199226231162924 1.4629979397036765 -1.1481256486593476
H 2.6861155384572117 1.6241161403751185 1.514967256809859
H 3.6029991426542765 -1.2070333027815519 2.2661722247715788