18

C 2.43800817739375 -1.5083369667229989 -0.7059029257951003
C 2.3771454402852643 -0.06189825570351218 -0.24476434977028916
O 2.9823108281760775 0.08653461479077398 1.0303096411826775
C 2.971044262416369 0.8944526851528944 -1.2516658470616724
C 2.2279776988234623 1.826601790784238 -1.8457723572199138
C 4.430178077790876 0.7468552208121395 -1.5840377483906203
N 5.257969877110742 0.8934918938115166 -0.38060175635135035
H 1.964000941921724 -2.146127506723121 0.04277443139369271
H 3.47750031328787 -1.8483656450542552 -0.8074422881547901
H 1.9284800952969334 -1.6411866410887412 -1.6634587381944255
H 1.3230219819545788 0.21112439429718277 -0.10982782836656606
H 3.939151709769943 0.17796491843724016 0.8639043154357522
H 1.177623398931835 1.935560133831506 -1.6194456630063863
H 2.6471579233998006 2.5095431052176944 -2.5746514758163572
H 4.6878097481228655 1.4566610648967364 -2.377109337744232
H 4.616537213154507 -0.2501007418160801 -1.9810474914259655
H 5.262895751562336 1.8648664173577043 -0.07712899428588983
H 6.22082003753454 0.6347949375365631 -0.5707213980178246