16

C 0.9091981398649457 0.14360908504968953 0.01742621840516989
C 2.428759833993935 0.05070514212394768 0.06231742162604448
O 2.9096469414177055 -0.10341069725440005 1.387002774599399
C 2.9297264328160786 -1.0062413856650212 -0.807453701376607
C 3.3079874644608607 -1.9298149192466652 -1.4866270360713123
C 3.8185196161654784 -3.0106122153024546 -2.319137373601477
N 4.809580016425871 -3.8043521781911687 -1.6082243534150897
H 0.5799609319519891 0.9494004674576931 0.6816091842221079
H 0.4694781223788214 -0.7942945372444228 0.355141007228707
H 0.5705544302704051 0.354686747971367 -1.0000687675619646
H 2.8543901629975186 1.0078170026160418 -0.27123296001296643
H 2.767826794064697 -1.0137699530832225 1.6412632892108752
H 4.181429335882976 -2.565774647440656 -3.2679970319965927
H 2.979446847548224 -3.6701318340523543 -2.5877577459985113
H 5.574348972619417 -3.204785625117142 -1.318593944886066
H 5.198643185404662 -4.509277894350434 -2.2226879005955977