12

C 0.9380675087099516 -0.05963618525345957 0.07360359912908948
C 2.45889070300291 0.00246661059337856 0.06563124044961008
O 2.98621672908522 0.4258348908243953 -1.1769643550831206
C 2.962751654610987 0.8266449947369476 1.1665354411680857
C 3.3548834206457054 1.543480640187187 2.053586461319478
C 3.8073666867249907 2.338295234050082 3.062357896031398
N 4.182857351125358 3.0250244947877265 3.9215903083395247
H 0.6062289621973258 -0.7037892944298947 -0.7462370260452038
H 0.5173467331774027 0.9405250355037628 -0.06590430531252549
H 0.5710599976841331 -0.46177220803486685 1.0158643968513754
H 2.8641006691830317 -1.0067395708981626 0.20462113715792604
H 2.7015231574528467 1.3279335473506508 -1.334379868865117