14

C 1.1317203264371747 -0.05510471457809791 0.5251799863750262
C 2.573308465962333 -0.07830676063457497 0.03416552616727162
O 2.702379781555363 -0.7757093424293714 -1.1958573338604939
C 2.8182658458857035 -2.1131195846105317 -1.1480734313424887
C 2.823725018660206 -2.9145615001618985 -0.09166863815875714
C 3.0596341098377766 1.2792060027460923 -0.18526221957864997
N 3.4371817554623165 2.3609802320146134 -0.31921609383284694
H 0.7704867907208793 -1.0784734794388868 0.6777561082014626
H 0.49206824531469656 0.43932091441271937 -0.20096756936382332
H 1.068024320868845 0.48331428126977155 1.4761176076402536
H 3.2311139974881673 -0.544249732440068 0.7797131466500735
H 2.9367828090638004 -2.501624261610797 -2.1490850413696707
H 2.699523928714132 -2.589529518441562 0.9290662094294972
H 2.953859414502497 -3.977503161537014 -0.2507366443391846