18

C 0.9654935806347128 -1.5722789988685344 1.6438593438171731
C 2.3776107262932857 -1.5987694716986762 2.138813774842983
O 3.141848146372903 -0.6906353362136469 1.3496092263378006
C 4.455881567202423 -0.5865212768515328 1.6444845553060263
C 5.142398490622053 -1.2280219826320193 2.590294401361407
C 6.606341800934502 -0.9858215006481041 2.7860877188416215
N 6.865833552405712 -0.5161525785802804 4.139176224524795
H 0.3437573351215684 -2.256890302238773 2.227963190629412
H 0.9116780856613586 -1.8752955255841464 0.5899196856631745
H 0.540913826663708 -0.5705487847440754 1.7322431538689453
H 2.8131190565850113 -2.6029652881092926 2.0466169941976977
H 2.4358140894312648 -1.3036038420815328 3.1889132151494337
H 4.929996145895543 0.1308576815900398 0.9873273006042264
H 4.679826520002003 -1.9318976929640148 3.2670115774280823
H 6.968471765334519 -0.30133952918176926 1.996847002602258
H 7.149324925015067 -1.922455912178399 2.6638678569783143
H 6.42224769414855 0.3768270807373537 4.286644213009202
H 7.863001956323027 -0.39178647835493585 4.295451810306286