14

C 0.36199223496092736 0.018190067784381883 0.08273463717940341
C 1.8606068045471453 -0.05556244440685432 0.1427778269521657
O 2.3478144399250023 -0.3596481848701531 -1.1608579529797842
C 3.661857061921963 -0.4679295233861124 -1.3241995405944202
C 4.611975200036018 -0.33301944067084144 -0.38620094352451817
C 5.975874428410626 -0.48002155443347455 -0.7416012625166171
N 7.09914040963268 -0.6045760045732991 -0.9982142491495795
H -0.04266166254459076 0.24541127256310338 1.0689202815670509
H -0.06449143767072203 -0.9372444100547147 -0.25006764441005486
H 0.04137370103066408 0.8029884779996467 -0.6090744493681578
H 2.19653142949112 -0.85043868909018 0.8356494051006783
H 2.3008743252816957 0.8915888627136695 0.4787984813730144
H 3.916730369083436 -0.6953105006761136 -2.3526414968701546
H 4.3959247178493 -0.1070173517395685 0.6446785588016768