16

C 0.9943329081753924 0.14661893925825645 0.08338446037990822
C 2.452298620630556 -0.16948263954889112 0.19613793520926556
O 3.176546135218999 0.7769423738250218 -0.5719451319678311
C 4.56016374085673 0.5662571455782792 -0.5897920523493065
C 5.178422582019573 1.5174247900587758 -1.6022263889781905
C 5.153433219622565 0.7755412347577675 0.7535254285239199
N 5.604938671098589 0.9251204315855829 1.7925114205623571
H 0.4101518893661108 -0.5675880460212018 0.6670495090636318
H 0.6601241367865144 0.10447419935742379 -0.9521703731316066
H 0.7896441383516374 1.1545100168490563 0.4695379245455471
H 2.66717580767446 -1.187061935684208 -0.1825940101761763
H 2.7870349327042607 -0.13514509162623542 1.2337572070583294
H 4.788906594499972 -0.47330027188157286 -0.8766647788685515
H 4.962334672791026 2.5500474173807013 -1.3217024507514594
H 4.761972974656628 1.3095074043199104 -2.583390521751692
H 6.259234635911021 1.3753975479848413 -1.6335444750216948