16

C 0.9191089415640665 0.09034456428722291 0.16028456641989478
C 2.4249116326480835 -0.03712026598161937 0.1664693375528402
O 2.967423303832539 1.0475445914378143 -0.5470502331660139
C 4.36646257520545 1.02216720654679 -0.5990048761525624
C 4.8055213265905685 2.237131799707197 -1.3986369292121574
C 6.250670211857625 2.306149168256707 -1.5098338668873401
N 7.4027188544646 2.3520861205696697 -1.5910736727942183
H 0.4707273233628266 -0.7449851378002592 0.7154865257008314
H 0.5334745953751475 0.06477570572951538 -0.8644884879511655
H 0.6013332209088388 1.0219121043210306 0.6316477945902853
H 2.739469490951371 -0.9860129945690702 -0.29904489677512686
H 2.8113430772199464 -0.02472829656171846 1.1994162659621876
H 4.717800570249259 0.10205937004963168 -1.0863330088889873
H 4.793214029041359 1.0509578413938598 0.4157618699405702
H 4.438903998391163 3.1451922243457204 -0.917906040118553
H 4.375844573394562 2.203460306824823 -2.3962197106537944