15

C 3.2267891148343697 -1.5050591425796693 0.13692799415786153
C 2.580298402908263 -0.13069703781842343 -0.005211721201501163
O 1.3569688134433036 -0.07633111675985793 -0.08343637236414098
C 3.36640785874362 1.0633036623729257 -0.04754421241710449
C 4.72788532720509 1.2446462990129366 0.016174571274324104
N 5.658148725365856 0.265161227022312 0.14454032241591566
N 5.252135777781846 2.500345047188045 -0.04714266904073944
H 2.439607088930609 -2.252497953264603 0.1407519942287971
H 3.7850573995282373 -1.5882983312904213 1.0682237540856268
H 3.8993458691228717 -1.7165734049684649 -0.7075689485400889
H 2.779031797151634 1.9730767156262372 -0.14880968600541297
H 5.384580698930033 -0.6991570578070169 0.19749844880066544
H 6.642015994705931 0.4790598052663355 0.184906053099518
H 4.6338548382311435 3.2829732201937047 -0.1394308561586124
H 6.23266712366301 2.6703281731545685 0.0009208287771349259