15

C 1.4976455588918893 0.16146866614841723 -0.49831690185042243
C 2.9235628033621146 0.6038286538954112 -0.3459711592271853
O 3.5272811744905312 1.1455552334359813 -1.2446102363160079
C 3.5737942926377735 0.3358667877861086 1.0068177211234763
C 4.925404794060488 -0.342688102146605 0.9357973776877168
N 5.848064158589133 0.3180836601082713 0.18497034873239596
N 5.227938381449256 -1.411209464219442 1.562999765709904
H 1.1138140303097388 0.4420001056974079 -1.4765282346562842
H 0.8786907268566929 0.5880358716463778 0.28779311764825166
H 1.4463190749357013 -0.932538113801948 -0.3853420510739447
H 2.910945937627614 -0.2344516864444835 1.6446296988881164
H 3.7137073219208188 1.3265733545631475 1.469159526637722
H 5.490627078129051 0.8918853802464729 -0.565997019289756
H 6.687898409017854 -0.20226450329450724 -0.005339992044110344
H 4.447905209284109 -1.7447900540544186 2.1188167389044157