17

C 1.988310749551545 -0.49888851134488904 1.2973113116704138
C 2.5889753990284956 -0.009513391498055166 -0.010653565846609644
O 3.601108160776644 0.9188912459810863 0.2567950575237894
C 3.1082130268123604 -1.1510838725290191 -0.8646214468041226
C 2.150147381218212 -2.18268512160023 -1.3707965739326884
N 4.35443633105639 -1.1527008839901982 -1.0850323378665259
N 4.9077677532278985 -2.1859899433251453 -1.781594871126838
H 1.6289059076195458 0.3490236967577163 1.871170479654499
H 2.747346770340412 -1.022971751780982 1.8813467964592223
H 1.1455013569130417 -1.1761864590703115 1.1358711696361392
H 1.7961881721150417 0.49760471816102214 -0.5863197026998596
H 4.407352442080537 0.536124533728312 -0.1274300574310207
H 1.1241628884383768 -1.9441724951330905 -1.1055427470678518
H 2.395004377952542 -3.171655520405754 -0.9635116691063782
H 2.19872939488296 -2.256137044998595 -2.466567895733215
H 5.783929170750657 -1.8960576496815091 -2.1908461507942363
H 4.30190082689719 -2.6032115720193274 -2.4814030847240507