17

C 1.5301272939570334 0.13660219808736646 -0.8682953247431303
C 3.0190233550262175 0.11466043722608263 -0.5680524306736667
O 3.747119784317226 0.8862530002666975 -1.5167093274953454
C 3.3319045475143554 0.7109495306159364 0.7988300922581112
C 4.700749874414805 0.4224202708499444 1.3155820551993638
N 5.418258403054976 -0.5137627183172718 0.8645538721970782
N 6.616650639510639 -0.7699081736248102 1.456392016566834
H 1.3386555616048954 -0.25512966521292957 -1.8679057105819892
H 1.150625716952789 1.1539803873321717 -0.8245587315327546
H 0.9800017593542324 -0.4795323279234309 -0.15326127411110038
H 3.3888280352016333 -0.9186596939668017 -0.5750234970021071
H 3.7554915294095896 0.40233635733898204 -2.342116736690161
H 2.59587894420831 0.3459696884333549 1.5297251176382907
H 3.1835811836652805 1.789617683062918 0.7426325152682707
H 5.0615021374486195 1.0631440505868606 2.1409052388443346
H 7.247052409342413 -1.1806572596201963 0.7921853136817592
H 7.033359018918912 0.03294436943594815 1.9302254897601725