17

C 1.4990499948433946 -3.2687193437171036 1.4617098341908599
C 2.746752736229721 -3.124077081909733 0.6383413850934261
O 3.533494344973976 -2.088303606377548 1.1787947075205012
C 4.715977125279443 -1.8495789717763582 0.4624356020294077
C 5.7438565195414135 -2.9195815776236587 0.6598808202699253
N 6.216813161461178 -3.556490303534691 -0.33413087734485036
N 7.097911659438538 -4.558891374436285 -0.11500896768939815
H 0.8706449043609388 -4.070609164289066 1.0680941323006055
H 0.9288318899369502 -2.342394818980346 1.4690790897037618
H 1.7506539604685638 -3.5246360516984283 2.4985504631397513
H 2.489299115394206 -2.8937474666302987 -0.40630140395369746
H 3.3153459031724695 -4.07020487845355 0.6216601703460816
H 5.10353366109844 -0.9011665675744953 0.8433483391994675
H 4.530012067355394 -1.7342615493447153 -0.614981225473707
H 6.055218515907021 -3.1442370900019108 1.6831945840631473
H 7.677983735891898 -4.70969968211507 -0.9262108381403679
H 7.625443956052132 -4.49531025664677 0.7429234604230206