14

C 2.4857151052068707 0.8989751565390797 1.32822523769036
C 3.351907283433861 -0.1086499725402339 0.6448692958914715
O 3.67133023885169 -1.1475781056498076 1.1898407894700889
C 3.783435110908224 0.23370403764226577 -0.7643708133149802
C 5.165262388823479 -0.21127651994194613 -1.2445178315883243
N 5.585877695802308 -1.4069394028566893 -0.7887952112664032
O 5.789588736070622 0.4852384917793681 -2.025296690711947
H 2.1146671491183593 0.506178138397067 2.272684245371976
H 1.6501293357226405 1.187390636869979 0.6782849724606901
H 3.0628049113086218 1.8070261559817455 1.515411476466424
H 3.7101921713067085 1.304953925089402 -0.9502035590000828
H 3.0499134912860817 -0.24674935637957338 -1.4259669748892327
H 5.096625268483839 -1.8318793919420835 -0.014121340564018509
H 6.515887761755293 -1.7016178785459382 -1.040133691898754