16

C 1.079546137400205 0.21013156477273023 0.1296823154456385
C 2.5214090374991485 -0.24650325163340295 -0.004765903399304649
O 2.670124149259807 -1.5030808176321828 0.5973419990638502
C 2.965480583547551 -0.2602601337702153 -1.4464858533494431
C 2.9667727485638586 1.007966725466972 -2.237376656824524
N 3.3343724425313503 -1.385772604723897 -1.8977110071292225
O 3.73568366391945 -1.3513660680186246 -3.2252146582476904
H 0.7970885501792782 0.205392918411594 1.1769997705187414
H 0.41397814344377215 -0.48193974993359534 -0.4023188208135028
H 0.9265373946161811 1.2139154807932935 -0.26679422634953803
H 3.1653821655135137 0.47816835461961676 0.5141700065806607
H 3.0469318951957383 -2.0867662755655267 -0.07102710730402974
H 2.911546558895384 1.8721523175971793 -1.5821564964264967
H 2.0976426998996787 1.032953730519944 -2.9132246629590286
H 3.852431878033849 1.07293909032648 -2.8513556704211003
H 4.010672426645576 -2.257983087889623 -3.390701550268653