14

C 0.6174484582680531 0.3560100068651157 -0.7537484452774171
C 1.9662010876027318 -0.2759114774695648 -0.8911280672838181
O 2.831609045850685 -0.31492191359566024 0.1513729427574747
C 2.521771431617502 0.2100346777266365 1.3626362683711395
C 3.3819982557649766 0.1542781858237723 2.357996096715344
N 2.2803694174723343 -0.7745404682087564 -2.01553212505743
O 3.5467908671549084 -1.328756704126614 -2.013113436160205
H 0.6982452934903176 1.4189402011648635 -0.4918776183750908
H 0.02126325923318657 -0.14055621649369457 0.00946550999654634
H 0.11229899713347422 0.2651437331034879 -1.709130921861776
H 1.5392338701050166 0.6679140441953256 1.4601119253215098
H 4.356731170076697 -0.296987732239484 2.251077881457284
H 3.120144864605749 0.5795012045922842 3.3225968467142137
H 3.632379784517137 -1.654108893071413 -2.9180124361038593