16

C 1.1657251995745668 -0.32627106526918326 0.035814510201311746
C 2.6652329272121524 -0.3427693980329764 0.06273525495936194
O 3.131046467652557 0.7510403938205209 -0.7265483366672908
C 4.458978239594392 0.9112394086093352 -0.8239061210062293
C 4.874784407748535 2.0678650628785125 -1.668018387778479
N 5.235280391866948 0.10829875459276525 -0.22306096342226972
O 6.576594779394221 0.4501055744952762 -0.45000621999385554
H 0.7660025931835177 -1.1492014077342965 0.6259671409818373
H 0.7911267362926682 -0.43818483281273474 -0.9944475878020818
H 0.7698601066912034 0.6089662033721387 0.44213495426626237
H 3.080054633046738 -1.266709556777903 -0.33964676287990425
H 3.0570295476573106 -0.23275152130154614 1.0803146464744309
H 3.9929783706581987 2.5800285216913386 -2.060479399720517
H 5.492129495854084 1.722930855750336 -2.4954176086701834
H 5.4696457631227675 2.766125416770245 -1.083192406382714
H 7.045392334655804 -0.21448817349140686 0.04529815960518452