16

C 1.1635936542247938 0.40224041825032153 -0.23538197080698953
C 2.6660984937984686 0.3087962352340046 -0.2204227447388953
O 3.0364851499789056 -0.8519277408146178 0.4895928828245608
C 4.424951791597507 -1.0358675590231374 0.5950303785531176
C 5.051308945750405 -1.453454613044116 -0.6901661198770819
N 6.013894308135176 -0.7890515990220575 -1.1662837050053905
O 6.49141406009124 -1.3277778192989225 -2.345925089762962
H 0.8463224751817915 1.298365753039421 -0.7776631807092824
H 0.7743657155518051 0.45092212793941927 0.7835979199783578
H 0.7320746086272669 -0.46730140196968467 -0.7304532298061106
H 3.108565372304653 1.1880350351789455 0.2642120263365054
H 3.0698857188450117 0.2681527428926376 -1.2476999222348308
H 4.568727864358847 -1.820218939182148 1.3410211127401013
H 4.922243604605689 -0.1290626095325471 0.9532332746332316
H 4.668870527939572 -2.3375742533653496 -1.2023023687749077
H 7.203984647241015 -0.7272802829993367 -2.590329910906857