18

C 0.9719787445801983 -0.17575244990234704 -0.11371003469652358
C 2.473113990724247 -0.10526790262488447 -0.01543106684669193
O 3.028941366321572 -0.7934806273167933 -1.1150127154210916
C 2.990945127934604 1.328602828518703 0.0012120684549052829
N 4.437396590950262 1.3114245636203874 -0.02516757515199168
C 5.116843828156952 2.5410035452165145 0.3153872475987466
C 5.114338239844202 1.3899007927559408 1.254389790357558
H 0.645864313540537 -1.2119153955859485 -0.14085823572425088
H 0.6222983388153139 0.31835094906070854 -1.022839448531896
H 0.5006869289310993 0.30441495464168183 0.7509209677987487
H 2.803154371411484 -0.595485132424503 0.9265226035849696
H 3.9415786195859983 -0.4930497869064763 -1.1870551878335014
H 2.5926109008667195 1.8593089424371352 0.8770263202485497
H 2.6357355547898904 1.8396988804212362 -0.9007830296326713
H 4.489399153447084 3.3948304655994987 0.5843165242048461
H 5.993698229544798 2.7845297344639652 -0.25535942621414204
H 4.502516897341584 1.4668553944319234 2.1365706670057283
H 6.00885932065237 0.7759219012526845 1.3608995677508324