16

C 0.8828443721061542 0.040775966535772756 -0.011690939860429121
C 2.3894800419150655 -0.09229835999818248 0.04141698781806335
O 2.8416547676528014 -0.5249923479133219 1.2989555397513268
C 2.9524189971266415 -1.0176318709644174 -1.0767333754254478
N 4.404051691437787 -1.0225824422839256 -1.1452453579198836
C 2.4636418765089005 -2.378718811003839 -0.8699514353722613
C 2.048371848526879 -3.479081972495275 -0.6344785431272804
H 0.5448734849985709 0.7193874201056332 0.780171908860854
H 0.39791254421809114 -0.9330133456026465 0.1348190246749437
H 0.549740123596963 0.4424692620958206 -0.9757786329844925
H 2.8548291927685363 0.8842335631134182 -0.10934657041000177
H 2.4666680873641913 -1.3957770256201758 1.4610970223621056
H 2.569977080195782 -0.6559426027001013 -2.0390896302470316
H 4.776246500731678 -1.241730391268551 -0.23245388453778326
H 4.739982864191074 -0.09487101119345513 -1.3871857902561755
H 1.6881203182689792 -4.461554445494343 -0.4569595363741123