14

C 1.1823383396801486 -0.4740889740578927 0.11369242786915255
C 2.6643007125195166 -0.26546240526744397 0.02713818104448947
O 3.461370617360802 -1.1594078861925814 0.13564217856438515
C 3.1294313198179093 1.1617133825549422 -0.20812443680082474
N 4.551453988853049 1.208774838396102 -0.26234192976255505
C 5.22888385604836 2.3610140595769615 -0.47203311537559495
O 4.697712673261318 3.4449890072940836 -0.6146193812378979
H 0.9754740720472935 -1.525292567246477 0.28411423808685843
H 0.7035062893749344 -0.14351353538515918 -0.8128621133235018
H 0.7580986178451382 0.12802192040125343 0.9153224584118718
H 2.7345328566161546 1.805798261439498 0.5883083242633702
H 2.681990430875061 1.5354136227461772 -1.1367551366730395
H 5.043448598101671 0.3300075305433472 -0.14660761688873486
H 6.316965227385658 2.2183799270515387 -0.4858869421791037