18

C 1.0893277142011775 -0.251587805527393 0.26889114386046103
C 2.4231511790958797 0.4427296700263839 0.12640685031565663
O 3.3807324499871925 -0.48331485019698384 -0.36779636601244503
C 2.319282220910842 1.598989918674017 -0.8900904936532309
N 3.6370849568298533 1.9506227783271057 -1.390679141868522
C 2.8905588707797207 0.9371981799387326 1.4971822250488083
O 4.200853832654824 1.4758004590639584 1.461272119632308
H 0.7735369076496913 -0.6549790289888393 -0.6872795201585103
H 0.31839256973783747 0.4441382755867911 0.6328537120037899
H 1.158981334569433 -1.0798878340450953 0.9817753792735338
H 3.892814257638252 0.03797335336481416 -1.0101967565367795
H 1.7771718172673021 2.4367589251854955 -0.42427629715175685
H 1.7181204825781606 1.2584025565538852 -1.7393591645305386
H 4.15642902346095 2.469808391081782 -0.7046753604360665
H 3.5752371181359948 2.487354715659088 -2.2392917788553057
H 2.848360466134313 0.09564064044799998 2.20336903955722
H 2.2379249266561714 1.7311765569492283 1.8585057241789615
H 4.759591660990101 0.7674747919279152 1.1209043483752577