13

C 3.4765956880453186 1.4817444542504898 0.536742969415559
C 2.5403351402306296 0.46644453167776156 -0.052206595337559954
O 1.438698631623257 0.7445366961011158 -0.4637644396710209
C 2.9880430709878634 -0.9545392685994862 -0.14185253942957468
N 4.137407559143963 -1.2880664130121218 0.27586155480945107
N 4.37858720754966 -2.655516709008828 0.11597637469045399
C 5.5313722020366285 -2.970887838413549 0.523931181169461
H 3.0066225415178853 2.460086449895313 0.5245378195997557
H 4.406605274172992 1.4961077076634128 -0.028655695941364807
H 3.7451035123691834 1.1919218522630968 1.5585727614540903
H 2.285348879579884 -1.6687705437262812 -0.572509776649146
H 5.8248307447869365 -4.014032200443366 0.44927951860484283
H 6.225420973793248 -2.2488255206172285 0.9543110803048676