15

C 1.2614725667033493 -0.4234348341274913 -0.14209678217969784
C 2.6793344650050064 0.04774425653116879 -0.24911567781071614
O 3.0758233714200256 0.5496056914471131 1.0395471948384136
C 4.298326281666276 1.013960020257072 1.1536243661166299
N 5.1276139791820246 1.0481143537061268 0.18797077230961107
N 6.3434444104320855 1.5865871325833651 0.6056321908791134
C 7.2061578987022745 1.6474759465916424 -0.32182439273362656
H 0.9266774208214292 -0.8050119299187295 -1.1127402643981676
H 0.5874944810545571 0.39136726748747774 0.15076337999862402
H 1.1702053196014923 -1.2240849902440996 0.5912265295045664
H 2.793687000545557 0.8598128736730489 -0.9842122610134943
H 3.3643039552985514 -0.7447082821791395 -0.543127680301713
H 4.524152493085741 1.3747271724520977 2.154208599466707
H 8.180238883441252 2.0589956077434417 -0.07452257731664165
H 6.999428796549978 1.298801795331763 -1.332156442448089