16

C 0.8062247979139647 0.4003868423021736 0.14563459758215783
C 2.2629194711868577 -0.014320914149851927 0.17135164614300075
O 2.347826370393823 -1.2306470886124317 0.8683300065831878
C 2.806205702201821 -0.1418693192610578 -1.2459365442474077
O 4.2337983362113984 -0.1974956022916382 -1.3078877870390833
N 4.704907796685892 -1.3230605985708 -0.7009682808259432
C 5.962781050864939 -1.4385435825932136 -0.793529726985756
H 0.4175403193366375 0.4067090080294619 1.1639646078091694
H 0.21805087324490371 -0.3103662028373622 -0.4307221960279782
H 0.6790026873851703 1.3940690540986742 -0.2859003455543896
H 2.8549653310342866 0.7656772402002119 0.6853850150984461
H 3.2044633011495325 -1.6285123959073147 0.6433149956197768
H 2.5613654806398833 0.7477709842512803 -1.8220413338296
H 2.3745534603371676 -1.0202132717594607 -1.7283344351600918
H 6.4040933345313 -2.313457328449054 -0.3225453428077509
H 6.572517940394706 -0.7041961060914751 -1.3067498379305809