16

C 3.1440275815570438 0.7717727266911641 2.2374057193708072
C 2.445005406661413 -0.3242227418704694 1.4815396937434298
O 3.122732248566689 -1.5795087506428012 1.6259543222646358
C 4.129511192556768 -1.8041176700393051 0.7726187029664403
O 4.478503953644558 -1.0494081252567962 -0.10807986043364398
N 4.705316560427787 -3.0074871623762194 1.0391847582806788
C 5.804146688960587 -3.529376929858275 0.27533654238821986
H 2.5717220611640537 1.7037687441072529 2.1544732101804684
H 4.137602421018143 0.9507435078936474 1.8378437705001165
H 3.2337391006464467 0.5224680049549574 3.2952660022821116
H 2.3854395329974567 -0.08251752883399455 0.4146585520138114
H 1.4470187324559218 -0.5081415037684534 1.8710476725071725
H 4.305836173913831 -3.5321270225907693 1.7914891642162802
H 6.0527877007821225 -2.788957274350475 -0.48576752567813913
H 5.533635511231721 -4.469094697266622 -0.22181243012957483
H 6.674649159606675 -3.7082511038275614 0.9002591539030378