14

C 1.1061165038850072 -0.22227362981370494 -0.11619617114876608
C 2.585106593406825 0.04885783306367581 0.08162514450880855
O 2.875017563466723 1.44632754490298 -0.042962625110723414
N 2.8654403928086922 1.7916040635176593 -1.3719383744482205
C 3.071521263631896 3.026033370634663 -1.5426717714446594
C 3.048435141737475 -0.36316266944832737 1.3981144168952166
C 3.41088983955128 -0.7368478559101703 2.484114329590049
H 0.8022913671499657 0.10783831149704919 -1.1075225093222247
H 0.5226025849411472 0.3090595791602682 0.6310581285540715
H 0.9058238741593724 -1.2967353878290346 -0.03025689169632237
H 3.163007326992509 -0.4764546221146877 -0.6782947722653584
H 3.089969086049151 3.371524722986444 -2.5725288565164095
H 3.212265022742227 3.720502239510097 -0.7244765750092447
H 3.738230472278233 -1.0646193813267217 3.4454666896627244