16

C 0.9593757358206322 0.08801222401149203 -0.4772659702197568
C 2.413520360510092 -0.29130301623251215 -0.5410592827808335
O 3.0717351178082266 0.39056403352600044 0.5130242556301088
N 4.404119944327058 0.07940497658285033 0.5109883631603742
C 5.040143544177191 0.6732602273528944 1.4372493607120798
C 6.4651468237489 0.4627214168747635 1.5831617005104963
C 7.195388902838509 1.047374502264298 2.531463165959072
H 0.4124025814047712 -0.42043582531902385 -1.2794984928193898
H 0.8208299792813456 1.164334431969409 -0.5979274856252967
H 0.5176673388777839 -0.2102341277382262 0.4783781670501597
H 2.8597147477442872 0.00026779695208556994 -1.4951843737595327
H 2.555868501490008 -1.366291179204286 -0.41392689447038683
H 4.51959570538948 1.3357348068383008 2.1382962516475694
H 6.9149137315006755 -0.2028997216340483 0.8639849834023936
H 6.743576169444483 1.7177503157629255 3.26445319778361
H 8.259010537714015 0.8735077624606692 2.611710079410105