17

C 4.159418972820085 3.5676639121818665 4.434393689046078
C 3.974800400291317 2.4441170813532356 3.4512108923921043
O 2.95897452836205 1.7640215762031457 3.445245080952589
N 4.997830112132395 2.2391066389171805 2.596301554744868
C 5.004988497954911 1.2017049544471599 1.601661944194223
C 6.40706664313096 0.6448144934278519 1.4340604535513441
N 7.334979307782917 1.723672464273204 1.1140895640488748
H 4.0487730024696305 3.180012315056414 5.445884684358886
H 3.3556352463159373 4.299223160796236 4.277824027532277
H 5.121304518376173 4.071971738029432 4.350822173595474
H 5.8179994198766645 2.8250438051913833 2.622222163525097
H 4.638895010229668 1.5813936907807522 0.6369589924075643
H 4.3048291946770805 0.42282539374396705 1.923386800505458
H 6.378252636880085 -0.16061623553234305 0.6939381502444177
H 6.724096028984441 0.1942950462005579 2.386305622301008
H 7.195261008517174 2.035725209428779 0.1622865284366187
H 8.293846785538873 1.4167239254192798 1.187695547868654