13

C 1.1146293360697201 -0.05718664404343779 -0.14030402969545414
C 2.6129066509531707 0.016220545857643303 0.05130237059974106
O 3.03517727517725 1.2966320298888603 0.48843232252427765
N 3.0671585575908806 2.143160013858165 -0.5896516081610632
C 3.387049653955657 3.3222608590656297 -0.2561343739597867
C 3.072777231878176 -0.9373662582589497 1.0684857638989353
N 3.4019098067817835 -1.7195254415542591 1.839431783960645
H 0.8235527839475087 0.6660993797381358 -0.9085557542093798
H 0.6003845627284147 0.17117772127121403 0.7895833835428006
H 0.8188469987693483 -1.0584541576325854 -0.4725533678784509
H 3.136266941179369 -0.21576741163711113 -0.8801687655915236
H 3.445989514678081 4.05059629315535 -1.0611167296377744
H 3.589528136051109 3.605732945439378 0.769975660554947