17

C 7.1524521580407185 2.5029589346930226 2.00068180667662
C 6.867641222136695 1.1400232577829068 2.5698072196375574
O 7.36836250872532 0.17455885580875347 1.6552581752220068
N 7.126417538653893 -1.1036798117677136 2.13274145248441
C 6.119248830696409 -1.780289535351901 1.3502142290295742
C 8.27797382717198 -1.7870285065874454 2.478976347403278
N 9.456516917611808 -1.3325160450006874 2.620621464497486
H 6.781307509239411 3.274514778541913 2.672228829620943
H 6.673442918950241 2.6311114727039078 1.0278436336530612
H 8.231348843283765 2.653596852745542 1.8643025757297134
H 5.786255018161025 0.9980812122592406 2.7112660351341504
H 7.35044338215705 1.0101771259818633 3.5426429411171694
H 5.163647815852307 -1.2538583277199207 1.4403398742196092
H 5.999090073946172 -2.7896628610537335 1.725998849797489
H 6.397900187099624 -1.8312628902507986 0.28256102996383703
H 8.073247844781992 -2.836612262863322 2.6897982134673746
H 9.477187395364155 -0.34703591005754836 2.351352236659749