16

C 0.3926862940398735 -0.03862207582125641 -0.166356797273157
C 1.8036650402465726 -0.28691657761277706 0.31669545467391
O 2.0432367844663055 -0.8903964246693 1.3425159388733239
N 2.7865155724980335 0.21271431194543486 -0.4771405034691298
C 4.1797781007487425 0.13173414296096211 -0.10265150141977915
C 4.828588537918562 -1.160661422971405 -0.5531849598190614
O 4.793889952503082 -1.3263625518162498 -1.9555461833767263
H -0.13578201059990766 -1.001824840148 -0.2101070960947101
H 0.32743978026652676 0.4499197364228969 -1.1319825970452206
H -0.12002281754162601 0.5776013909929949 0.5779251276701778
H 2.5287545152349353 0.75468968890446 -1.2834774482494893
H 4.260142420400758 0.21554460734470193 0.9835709409121757
H 4.707669085336056 0.9742730687830429 -0.5651467679497204
H 4.355156214764161 -2.007680021699115 -0.03451170493004338
H 5.885491053505542 -1.1559324827564335 -0.27290060693007706
H 3.8836972678581363 -1.510791173870314 -2.2029758675731412