16

C 0.8259387583836785 -0.743975815222095 -0.6795658141962896
C 1.8491262124570984 0.3349796697947609 -0.39427884188831336
O 3.0950888866081825 -0.29892997659695375 -0.19803618520875282
N 4.060893524206928 0.6670039049918559 0.05670685674899651
C 5.195818825946144 0.12522586195927055 0.2418397766527467
O 6.286998480484995 0.8347151840319315 0.5090005566526352
C 6.11000112032493 2.239893580669285 0.5855297450836614
H -0.15232290963788503 -0.29652818072141507 -0.8346320980713935
H 0.7578416109695605 -1.4403332726712317 0.15791001152407455
H 1.0930349649227311 -1.3113430258200804 -1.5753511331814596
H 1.5835207890784408 0.9083724625036883 0.49471198689155477
H 1.9178324324487486 1.0397380887270424 -1.237432861895573
H 5.374102883560523 -0.9429576715514785 0.1904636469177673
H 7.0945643998081565 2.6529411408846473 0.7994418734334017
H 5.400505810400513 2.5066222249940586 1.370117133274961
H 5.738832318168499 2.6336320388912644 -0.3692795189636911