15

C 3.3284934589310904 -0.2157625883215095 1.3187748250324882
C 2.5799518985324994 -0.2906242234366625 0.01961967862250969
O 1.3881599473723794 -0.48337583659672917 -0.03270931792249441
N 3.3020615568299148 -0.11857601521325332 -1.1477126845343362
N 2.615109382594221 -0.18463635808368237 -2.362386027552785
C 4.668396309582698 0.11504623027133903 -1.2208206847710081
C 5.373084449653945 0.27373697239156836 -2.332001179168077
H 2.6059858173845925 -0.3693416292034868 2.120140441726665
H 3.8123077081862844 0.7570081152541496 1.4515439559147971
H 4.097216120986826 -0.9831787535183827 1.3839663861018507
H 1.8712448598177454 0.5060259456389106 -2.3336185945260093
H 2.136008308430121 -1.0871436006568513 -2.3988100449364915
H 5.152190093957292 0.15474406527057807 -0.24521342677442987
H 4.911315978569677 0.2293962225707925 -3.3014377319655104
H 6.4424575105789925 0.44811048538814907 -2.260841735982486