16

C 0.6826740193953521 0.03780708000172088 -0.06473899763433937
N 2.126883823849864 0.07268607869742177 0.04444043809345279
C 2.9735732130844896 -0.8807510983740559 -0.6385567326996746
C 2.4233224220170952 -1.6242378414203795 -1.8311163354789048
O 1.8480765083260446 -0.6494568764797269 -2.6897167292656605
C 2.414638406534989 0.6171624158903505 -2.414318016274327
C 2.963350149455134 0.5543146946458064 -1.0149572405539482
H 0.2994638850465433 -0.6862007676835716 0.6698114702493856
H 0.29490454461043997 -0.22104134679151716 -1.0528239880771746
H 0.2961372289398114 1.0191203170035723 0.2114168150994929
H 3.7647364829147394 -1.3349235476653563 -0.05379087205424808
H 1.6403322429204514 -2.341617014603339 -1.582244929770797
H 3.2459014306027774 -2.1612726011881778 -2.3308854899087397
H 1.6334279171563493 1.3666664392511527 -2.5533786850160327
H 3.2314322367378794 0.8440007139169771 -3.1140928826513203
H 3.752297301657554 1.2480523870437095 -0.7387020062424441