16

C 1.0943929188602841 -0.14951701706412043 0.007928877929855215
N 2.5313776381575868 -0.13298674573581287 -0.11961889395138676
C 3.062961752656338 -0.5014803238947041 -1.406146116698883
C 3.0890869637104084 0.910022799812168 -0.953953969899176
C 4.330756326997347 1.5575813134103609 -0.4913318153360297
C 4.888052227383387 2.724617069797932 -1.182523895833571
O 4.205439303514032 2.86971083873179 0.05457545248883798
H 0.7606493370109956 -1.155032123141561 0.27849303606789294
H 0.5677977418939224 0.14799924299726908 -0.9131111869270437
H 0.7931069976162793 0.5250457710376227 0.8150455029385105
H 2.3582876731710676 -0.7496438202397946 -2.207007954635923
H 3.9719288556140193 -1.0966041391873842 -1.3993486617088686
H 2.3789151259740065 1.5841499175717118 -1.4404102025549255
H 5.000956982741078 0.9083767994624162 0.06332365127420352
H 4.368888731274589 3.126205614977472 -2.051237059774374
H 5.953189536399605 2.908969564086395 -1.1438010454753083