18

C 1.2602506897538006 -0.42126666181693967 0.005665322361546833
N 2.6455854099267198 -0.5482859965519234 -0.3872683451717115
C 2.887527617222433 -0.5702055004282109 -1.8229515188346643
C 3.247388719693909 0.6117773522693168 -1.013681633337585
C 4.67278441513033 0.9348095380710731 -0.6366290534252633
C 4.797387743385317 1.5598902580885607 0.7395655588588477
O 4.151232923897931 2.8077586354212594 0.8535256891767277
H 0.7912506187792319 -1.4004645660348882 0.021724916184612454
H 0.6774372219483297 0.22973869161918517 -0.6626612175245965
H 1.2063165212092768 0.0007176324556460874 1.0206946227071847
H 2.0231701869718615 -0.49092759215794535 -2.479135702042175
H 3.6569343886812002 -1.2515728354758082 -2.1596141476783166
H 2.5963294672392117 1.4785404110960925 -1.1461923892661945
H 5.096544684244182 1.6190085861005141 -1.3862618102262885
H 5.25683076913023 0.01595276624879738 -0.6653217724976047
H 5.8525370681512845 1.7443423209915176 0.963851194451447
H 4.418830566999698 0.8537393396197523 1.490474849817742
H 3.198989837257982 2.6513399953889127 0.8894825610541593