16

C 1.7316286820362174 -0.2519896645606404 0.17653515632165956
N 2.992440170263283 -0.05522500702753819 -0.5111697363988168
C 3.013804190741811 -0.36598780609547404 -1.907156788696258
C 3.025243821299554 1.055283986999346 -1.446815817748509
C 4.254924059999728 1.8965381851689147 -1.528036097002127
C 5.52409222340812 1.3536807265788733 -0.920950357555569
O 4.203230147347179 2.9681509133144073 -2.0734900531888187
H 1.6736450849875406 -1.2904356877431902 0.5250354266066429
H 0.8584307338463796 -0.03810487592864842 -0.4575503328229084
H 1.6894568344366974 0.40680437120440993 1.0557539742718522
H 2.089231034324061 -0.7082888703436672 -2.3781010704576873
H 3.92394929559249 -0.8326108428884299 -2.2843308872522665
H 2.110280653353634 1.6170047076402694 -1.6217168007258622
H 5.731821899723155 0.34407983679075477 -1.279765114738395
H 5.3983035180467756 1.2707200358719097 0.16073045111612777
H 6.35031072542451 2.01556743972076 -1.1560062044510966