16

C 0.827817474126383 0.1432060402869322 -0.7491276210893966
N 2.1222486054590064 0.03122117575140909 -0.1188489688777836
C 2.9081368021822747 -1.1203959800735521 -0.48437356573519863
C 3.270829243829121 0.22122645892498247 -0.9808961122433881
C 4.420444515876961 1.002687125684974 -0.4187832785343539
C 5.726353829869386 0.8172234170343831 -1.1404283918644498
O 5.870894279040895 0.15600704831096526 -2.127596166886879
H 0.09141474279191317 -0.4162767245994185 -0.17080042906592635
H 0.8132809305407359 -0.23606301853393247 -1.7909775567912989
H 0.522518292164608 1.1915056608511827 -0.7741623637623882
H 2.4882276266398557 -1.8207833182402147 -1.2077165090245703
H 3.480375404811445 -1.5840149809709063 0.3168509772615418
H 3.07665343714609 0.40375733438637573 -2.0346613384163783
H 4.5766255382047305 0.7464529485897266 0.6391777491373446
H 4.205536800846737 2.0793995138018873 -0.4107611760238238
H 6.579748787035081 1.3498724557322361 -0.6841162161906287