15

C 1.0403852463228003 0.19641945270097505 -0.2235635586128451
N 2.4622931822927234 -0.009319628324032256 -0.09242028701710596
C 3.073551024405438 -0.9444622067277042 -0.994908044045795
C 3.2903408409093275 0.5175845068603412 -1.1623783116639084
C 4.548387786837267 1.1661988019505916 -0.7709874053870673
N 4.989662190593337 2.128898179544617 -1.4620100752926526
O 6.192734207199208 2.607029365150983 -0.9641386120510325
H 0.5068318785594366 -0.5634299228901907 0.3625896212413296
H 0.6910444319027139 0.11637327401341793 -1.2683651878953517
H 0.7703758313494051 1.1769936561281615 0.15475364389922833
H 2.447504334699169 -1.421767577440516 -1.7351008298072472
H 3.860099441365477 -1.5676099158943322 -0.5828883770041368
H 2.7816622481594964 0.9901133509328385 -2.002003468527096
H 5.069502644065475 0.798272635619054 0.10556889975121878
H 6.406582059827907 3.3253481972455323 -1.5734958215638124