14

C 1.308600742341803 -0.16086101924965662 0.044404015923777206
N 2.735431058501367 -0.14458179521063455 -0.18657063998949994
C 3.188923949019904 -0.7161476914893625 -1.4231309985679652
C 3.1753274043720268 0.768276473619781 -1.2271755206170638
C 4.428803279962014 1.5393614947223857 -1.0170539732399195
O 5.345273663044961 0.8972744617766069 -0.2857770362270492
O 4.61803889964993 2.6333927386783347 -1.4847680074750427
H 1.0368456577426879 -1.1080246415237693 0.5168413094495562
H 0.7162823814980569 -0.049844049321057585 -0.8729703179550056
H 1.0468551817962355 0.6491397428689247 0.7361096414192676
H 2.438874612014135 -1.0946942139985312 -2.1201000893153603
H 4.122827479826973 -1.2546773508751603 -1.3898429583379
H 2.429957623078631 1.3321676403681115 -1.7621507506112177
H 6.107907488373034 1.4817049241235423 -0.22758976102673759