16

C 1.35254392096626 0.17653230090567215 0.8497499101548003
N 2.3002598768589464 -0.09359056515609254 -0.19533077706359853
C 2.30194429096961 -1.442257447068606 -0.7152303887612835
C 2.991369152612289 -1.3164291860492041 -2.0468593925593783
O 4.189816026956008 -0.5591393443681986 -2.0147005613548346
C 2.9869215640889406 0.0865466736524913 -2.4097341072533824
C 2.2933556411961726 0.8435631828072551 -1.3042122412171
H 1.5065109202038476 -0.5136333687731192 1.670649397876167
H 0.30410152598447093 0.09202015113408302 0.5117361842604706
H 1.4959362582509377 1.1886135607979018 1.2305593887199582
H 1.2743372715553436 -1.8343241978983926 -0.897857657771122
H 2.7980794977551353 -2.1280557022335063 -0.02604643861122927
H 2.960935674220348 -2.129223648241083 -2.76948937474144
H 2.9565908669428946 0.45069214621972037 -3.436940299774119
H 1.26950198139428 1.0841639650218002 -1.6608454030952462
H 2.7880822652718766 1.7739793794942276 -1.0313898453801886