14

C 1.0606362401872107 0.11352503138233301 -0.14090913418881532
N 2.4794552635289295 0.07287408012976561 0.10706056525135746
C 3.2736056936070335 -1.0686714274660793 0.225916956656731
C 4.545140884767679 -0.762295377107995 0.4513629358170059
C 4.664254687492593 0.7348885972819923 0.47925379717154776
C 3.2421500825819214 1.2037295381722486 0.24156393234956441
O 2.819807061115171 2.338679880956518 0.1836439317670281
H 0.6735523654315129 -0.9095934565568443 -0.20882896962810613
H 0.8408652149023259 0.6398772599219869 -1.067121959163583
H 0.540917335086854 0.6283834811939137 0.6773530528014884
H 2.803618047597381 -2.0385997039734836 0.14075739656757205
H 5.351119410980574 -1.463253686550955 0.5801408923985284
H 5.313283332031719 1.1386219366712051 -0.29075287314031506
H 5.0213289658553215 1.1226235592016702 1.4356472965206761