14

C 1.0551339605345178 0.06541293007596599 0.20130371983798087
N 2.4686025805610576 0.03877922272406714 -0.058287169506977876
C 3.258230734140689 -1.1616543899632408 -0.16027603186119196
C 4.628014137963602 -0.630170055140051 -0.43898908148742866
C 4.600465148660804 0.7045266365796917 -0.48098669686204115
C 3.2134228111658576 1.1640587303722407 -0.23971462804755503
O 2.77962526471661 2.3051269197237145 -0.19954496771656555
H 0.6825049012607516 -0.9525013081448229 0.3083866558695416
H 0.5212016677552732 0.5619141266840683 -0.6182533210431902
H 0.8371821335159314 0.6220347658234471 1.116963808133817
H 2.907225540290938 -1.8070067559254575 -0.9790359294098337
H 3.2262876786456722 -1.7559085808477888 0.7595801766939132
H 5.48195565513154 -1.2758896320290507 -0.5725827745694924
H 5.423042381665141 1.3764728959830308 -0.6505472487561669