18

C 1.0813869572988495 0.009687399989759852 0.09240352731355621
N 2.519549654657683 0.0120547256001734 0.027152765388071567
C 3.25135724004303 1.055884269066039 0.7295711859216318
C 4.3018096309057094 0.01019800919071535 1.1623492878421773
C 4.764629280351197 0.028850751522827667 2.593372698377202
O 5.394377965694335 -0.08079441925162885 0.2697985167906221
C 3.246115729849368 -1.031781221639038 0.7542608897054592
H 0.6876367192148944 0.8909545511928435 -0.41745315602170496
H 0.7048518574327931 0.029871838036707295 1.136697825528966
H 0.689704664961153 -0.8793212831729151 -0.40334513503475844
H 2.7062840179913574 1.4758284029957411 1.595699554653129
H 3.6047789307141986 1.8756149415495702 0.09501496832149264
H 5.387102283992417 0.915545104636873 2.7911149530435453
H 5.369517546343861 -0.8530432269733691 2.80691245843236
H 3.927198521053889 0.061282654915586175 3.2906088290660143
H 5.975066318840125 0.6660869376490955 0.4309793868548
H 2.699903960219069 -1.4204518813057647 1.6255891857827394
H 3.606807869592043 -1.856518027602699 0.14637479257735667