15

C 0.9594624991806711 -0.04454798479428754 0.016251908457761553
N 2.408620910202673 -0.04194614609158079 0.028184126850785102
C 2.9517139937038355 1.1032844737579097 0.7683527923009379
C 4.312805831008872 0.6225592091603008 1.2353110307525186
C 4.1166589203158255 -0.8731861497064296 1.3604490426433846
O 4.862333315173194 -1.6899783578388776 1.8358174825584952
N 2.8949094838526297 -1.1502756044166027 0.7853900197912094
H 0.6294218502089821 0.8531793780349708 -0.5166054102381864
H 0.5347619763504353 -0.05279354647543796 1.0250724856701414
H 0.6010170382443354 -0.911712862266117 -0.5326031631580787
H 2.3173596033454045 1.3193045154928342 1.6435742084111864
H 2.9668808416983383 1.9835212150835653 0.13024841150525382
H 4.6517110669377315 1.0644689160824594 2.169942385975296
H 5.085488199184053 0.7765474845070947 0.4679939328213669
H 2.775173921294111 -2.0475573548336 0.36106015999117785