12

C 1.0530958973304527 0.06862395650377572 0.032605493856088304
N 2.491746203934869 0.09926955706466155 0.03404848172547661
C 3.32259416660568 1.206149791133964 0.034837095314961396
C 4.570005384493271 0.7462270273924259 0.040503647692533874
O 4.557355972645953 -0.6227241926212684 0.033021925257895525
C 3.2486666140415923 -1.0346813193316473 0.038443632972531686
O 2.8799104212770454 -2.186311832639085 0.03661186120666327
H 0.6733165708557426 1.0923237806426027 0.027865045789965157
H 0.671273933289801 -0.4492153786387608 0.9086471516533027
H 0.6802578610206544 -0.4446011259750078 -0.8601239256306112
H 2.947703774852399 2.213163669631578 0.0339834027786914
H 5.535795914257277 1.226762638643068 0.043130117792303656