13

C 0.9474714630879896 0.05223177040350294 -0.014386130521871134
N 2.3808282105532044 0.10157843303866568 -0.01243099488933547
C 3.1657409438970983 1.2067345942898573 -0.005546131806155326
C 4.468730961390243 0.7426294829096707 -0.002954037074043071
O 5.637029722773055 1.4287840099567397 -0.00228575620304266
C 4.354893035830409 -0.6559822555405523 -0.00615014179992421
N 3.080981146837639 -1.0260786284609462 -0.006709213155272012
H 0.5596784944030037 1.0734299295177305 -0.016650472870117866
H 0.5847567740796601 -0.4656413910722583 0.8741912799500319
H 0.5902374399519993 -0.4626540358610999 -0.9070122743334947
H 2.7622692512204168 2.204071224224643 -0.012556278707143495
H 5.457678604969382 2.3708672759125715 0.00023819961516219042
H 5.147339208873451 -1.3906882475438542 -0.0008724175622531956