13

C 1.0053497391794233 0.07354769348333856 -0.2247027801327482
N 2.4275412823975846 0.03951447209860672 0.008602800254784253
C 3.2513885178799056 -1.1438329043695759 0.07050122952562388
C 4.638578494976424 -0.5391536852687789 0.3384073012073792
O 5.649030047543144 -1.1650344529587107 0.46399658106306607
N 4.497990532455591 0.8489997469481168 0.4011425099019512
C 3.241596336611018 1.0881254476805735 0.20882080383012916
H 0.6447339140591202 -0.9461171112454825 -0.3538422028698372
H 0.7634362561585298 0.6277734719233606 -1.129012195996208
H 0.47341791662358296 0.523619231901399 0.6199622197602296
H 3.251878029150288 -1.709576410088578 -0.8714982662461787
H 2.957994439588568 -1.8146284498747915 0.888994914161754
H 2.8222057568636507 2.0925497348617963 0.19993835298812965