13

C 1.0602093444359608 0.08101170288223736 -0.020239604582130977
N 2.495057589023046 0.0313053357421571 -0.016498286463826967
N 3.2343176815119836 1.1545734827165905 -0.02191257873666726
C 4.492837812479157 0.7346795355381838 -0.026254908689011102
C 4.582874932052987 -0.6609064383300663 -0.022491232310928765
C 3.2686515352770593 -1.0716431348464084 -0.016228991488521475
O 2.666566384154878 -2.274379479942116 -0.014922974939919042
H 0.7800941416541153 1.133820862871401 -0.015623673229061937
H 0.6536817777934614 -0.4073423541835839 0.8741403383679415
H 0.6554024777065175 -0.4020282254730811 -0.900931283390881
H 5.288390507029258 1.457685448443911 -0.03502567757130617
H 5.47006946470307 -1.2789136743686038 -0.025565551851585783
H 3.3389219478427106 -2.960260319438079 -0.015862196957951352