15

C 1.2128516823718132 -0.06301459783146196 0.18827132769365965
N 2.4996537470781592 -0.11089321794326924 -0.4230528860905147
O 3.276242452681666 1.0351657829303313 -0.11718046734504306
C 4.525324465964202 0.7358259067895663 -0.7140643028277884
C 4.73098387025678 -0.7435034817830194 -0.4371257882675734
C 3.3015817370172247 -1.232680244366459 -0.3455614494202175
N 2.8237838276252787 -2.4064870493463304 -0.22641704687620529
H 0.6162318013556558 0.7375114944907158 -0.24757868841224592
H 1.2899856255158972 0.09119742154590606 1.2791495272151163
H 0.7347790642487584 -1.0201131120007134 0.001685219584098883
H 5.264879240812883 1.4017501849336813 -0.25674275569110533
H 4.475800168374402 0.9334018544824517 -1.7961409760586862
H 5.2251157172758305 -0.9138458754306086 0.5248605087252465
H 5.289108132255872 -1.2577347737087257 -1.2109040934472375
H 3.569892544876526 -3.0961690118845873 -0.25821059081758824