12

C 1.0010773695744846 -0.03702714730281258 0.06307027304491453
N 2.4280600169409507 -0.17970490946363138 0.05216889418544559
O 3.180171381356472 0.9713264251720383 0.04769229912154356
C 4.456157210468288 0.5345094917820913 0.049879497074625315
C 4.560057271045237 -0.791733865665784 0.04747178052792054
C 3.191571653696244 -1.3163831010858715 0.057751932255036685
O 2.7416931155041437 -2.4484665634618366 0.06044415825825062
H 0.7654674040090278 1.0306775999684874 0.06347049111144289
H 0.5722672073602147 -0.5026994861550907 0.9442933976605414
H 0.5642462976931065 -0.4926447407909811 -0.8315202183486408
H 5.196337157143145 1.3280670260236396 0.043433399985646444
H 5.458711242942338 -1.3960796992822775 0.05364245242027068