18

C 1.6989594583908858 0.6333538963633573 -0.25857119094337955
N 2.7513429250415977 -0.2862064927180768 0.10827265185822921
C 3.1611670654062456 -0.1728003599690076 1.4661017825711782
C 4.586667829377823 -0.4060460578887456 1.8389176837012755
C 3.99416009498328 0.9785262541901142 1.978435882787775
C 3.7650803651493745 1.5396341112024912 3.346664571029312
O 4.93230728243279 2.067777368447928 3.9397566008219123
H 1.4507706021998823 0.5082730046571524 -1.3117793765043888
H 1.938578303260012 1.6890090226369834 -0.07778121340324409
H 0.8010773744830287 0.3975314870532146 0.3150164528250172
H 3.552362359679762 -0.177603248735651 -0.5132777461325949
H 2.4197066498662587 -0.5635551156431746 2.1634032586811287
H 5.298571718387235 -0.5694755252665676 1.0441504269388462
H 4.788154923560219 -0.9792326484408881 2.741298696311239
H 4.30722229587445 1.6947307683294115 1.2386526632338688
H 3.3269068720854946 0.7615614906314955 3.9916591291410852
H 3.0515402939193748 2.3753194316335042 3.3072044394171427
H 5.623568089850225 1.402136964919152 3.862481896134687