18

C 1.9473934769190406 -0.35105027831816576 0.45594209643621547
N 2.8369675234577465 0.1748207911995913 -0.5580233473425933
C 3.6397474234405234 1.269473361277002 -0.13710932743365636
C 4.079540642221765 2.3068777834729013 -1.1152804227493958
C 3.1764975762816543 2.7051289965186203 0.0036032748494498235
C 1.7509948906504156 3.103307400870761 -0.28248817395963527
O 3.8079185762696475 3.4752058220652766 0.9859149017095202
H 1.3759398061344352 -1.188535883771322 0.04850168962677357
H 1.247868669962977 0.3891243964209118 0.8614000216274887
H 2.5391217740826018 -0.7429017372402756 1.2904175558835842
H 2.337927929702985 0.3949529677204609 -1.407520570308438
H 4.391562916407625 0.9836529211368213 0.5975468993411304
H 3.6577074418180477 2.268967882105281 -2.1086902495767466
H 5.111449947649624 2.6539133630510574 -1.067594778964827
H 1.2938453023806602 2.433313616795049 -1.0127835386284916
H 1.7207005447974284 4.117405313235239 -0.6784953105113489
H 1.1469937868585238 3.077219374383692 0.626681732385454
H 3.398995855629196 3.2693736324195375 1.8378382653622534