18

C 3.5966142701617216 0.3018162683141567 -1.998756062959415
N 3.1477589106920933 1.2794590704106332 -1.0258378984016299
C 3.9413140682143197 1.3194457906048536 0.15235901998718399
C 5.189908734748951 2.1678126371557283 0.13569262348738398
C 4.010871922323608 2.5935452630864866 0.9300328884812875
O 4.136303982750961 2.5552131496022352 2.304805765750627
C 2.9074070829058773 2.4009351532927536 2.9627171969528545
H 2.9322078919798216 0.3175296927569913 -2.8664597004918777
H 3.6499213247341107 -0.7255815215685727 -1.612714974027149
H 4.59458544261649 0.5812409831178732 -2.340855752127034
H 2.178898072086379 1.1136294592865112 -0.7897938602466917
H 4.033100004620426 0.40449574990295417 0.7634693420468882
H 5.391915281759693 2.7181753924037513 -0.781453388677038
H 6.04273994804645 1.8137613721372015 0.683895226300684
H 3.407348619239813 3.4234795478637077 0.5458066836773572
H 3.0929884036197954 2.384476931421085 4.034765419302962
H 2.410401204350571 1.4621977195092868 2.670191966548626
H 2.2287209061390527 3.230980197966509 2.7310989667922176