18

C 3.1363870838714916 -0.328280777233542 -0.9891743113610275
N 2.3289336963717995 0.024130813823422363 0.16104451293181873
C 2.786737493269619 -0.5342480210594838 1.398323531001795
C 1.9563382227113053 -0.2884462512635259 2.663114602351443
C 2.4205514022924666 -1.6588829247891386 3.1892076389938504
C 2.719297815442818 -2.0531465808655636 1.727647538952848
O 3.77598409011695 -2.9072287935932817 1.4231141461304446
H 2.7062566868133673 0.12133705232175429 -1.8902846230999966
H 3.24636316799759 -1.4094472977118127 -1.1581864806380455
H 4.141227673066962 0.08896085061799204 -0.8648704826392
H 1.3586629699609512 -0.24543185652644925 -0.002595450883727068
H 3.813743094917586 -0.1913128158805573 1.5604512962817811
H 0.8868455849184405 -0.3025248591101709 2.427691831596522
H 2.177187142959861 0.598528194256529 3.2538236607360203
H 1.7267560927300203 -2.2705798267671278 3.75051346255179
H 3.3526988541113876 -1.5588999199251867 3.755233157125168
H 1.8289675006539254 -2.4843535857367205 1.2658838568184654
H 4.584160612086725 -2.561311524834281 1.822707247370712