18

C 1.2938810822184166 0.5312036673646083 -0.0854514528268697
N 2.056131960948622 0.21865803280155885 -1.2802626550375604
C 2.9017279246294194 -0.9490928977209433 -1.182326724122539
C 3.8207922849371254 -1.085665935379599 0.001845137676735523
C 3.375261448823247 -1.478599693479035 -2.515256945905075
C 2.258965910626386 -2.168222912238563 -1.7836517178193683
O 0.9613469414752017 -2.0642383576134566 -2.254017271213366
H 0.6134982459272308 1.356205667062067 -0.2992886853740456
H 1.9031991865149727 0.8076003638506627 0.7813785267264057
H 0.6838134439976827 -0.33802029263186056 0.18937293373050257
H 2.588849245600298 1.014201553396806 -1.603198334668235
H 3.277764334682807 -1.0766492462798318 0.9454985840491165
H 4.563997742496275 -0.2781537627067793 0.023479158753244533
H 4.36998894945607 -2.0239842390693648 -0.05447538404348866
H 4.356516273383933 -1.9372117301930036 -2.565856451845555
H 3.080008195697965 -0.918853765004952 -3.3999020857277125
H 2.4545331070108376 -3.1310635659355426 -1.3286851278291472
H 0.7926544453847734 -1.105420247288496 -2.2915073936777977