16

C 1.0176403338093443 0.20086144281060722 0.007404840120098365
N 2.410778641735505 -0.213676327085979 0.12193396193334147
C 2.8501388744340774 -1.0793485099285345 -0.9219630637868443
C 4.363892812455285 -1.4221902753282487 -1.0485922227608753
C 4.0132047456754565 -2.8734975265127534 -1.4433471383628464
C 2.6264719550806244 -2.6038787530259593 -0.868232441699312
O 1.8070735108639093 -3.291546036396836 -0.3407981687052939
H 0.7648763240744495 0.8413467870537502 0.8483178662613023
H 0.3060258068573096 -0.6329116820247548 -0.018336257953353995
H 0.8925327160583446 0.7830623418638548 -0.9090851271361741
H 2.5694515799876068 -0.6385522595949216 1.0181796696452856
H 2.4884280987068053 -0.7084478940449206 -1.8882425247094319
H 4.84466254673164 -1.380709038236577 -0.06906515761009008
H 4.936686730259042 -0.8303021215686348 -1.7583744818940947
H 4.571710026221325 -3.689691363969693 -1.0012696506452037
H 3.9662293740020593 -3.011162423106606 -2.5277445262883402