13

C 0.9366367225849146 0.06454967362518135 0.14772644211498148
N 2.373560967916564 0.05693642687395464 0.05824006543351053
C 2.873522898477563 -0.010033156894705882 -1.0972329683727702
O 4.267922422313649 -0.01160938268394606 -1.2075200125129246
N 4.558736775404676 -0.08967471925208953 -2.5412031348543502
C 3.4410243348712357 -0.13538307477602235 -3.265552685004096
C 2.3624542228312784 -0.08510537606488502 -2.4484401314578936
H 0.6441214173253564 0.12368276134316 1.200769853291144
H 0.4860327906069738 -0.8495322635186318 -0.2652605277360572
H 0.48650885073840405 0.9205594360583816 -0.36910698512024315
H 5.532819760677753 -0.10223946152581646 -2.7752226387420795
H 3.4981760660749592 -0.20108799559657206 -4.34151407819923
H 1.324023214479932 -0.10463929322554903 -2.7275072856884974