14

C 1.147747888552811 -0.01954260430024422 0.5449283471389275
N 2.5285045992204687 -0.06769971162265566 0.15588957270084974
C 3.2120151880902323 -1.245448956112876 -0.001214436993479351
C 4.513728955611654 -1.4342919832663845 -0.3610063893066973
O 4.800067733728161 -2.7714459084368808 -0.39778794450579297
C 3.6789157395830006 -3.4195935586371116 -0.04738495703557853
C 2.6745602873941756 -2.5619664403529403 0.21109491810505418
H 0.8316509810577923 1.0210576979287145 0.5984392431000783
H 0.9818808252526213 -0.47053504420571735 1.5387516541850472
H 0.5010261284002467 -0.5294139616684456 -0.1655362654938081
H 3.01263504235533 0.78859944421306 -0.01507294251897046
H 5.313830549791136 -0.7670094776755385 -0.6146336503530995
H 3.745048580484176 -4.499138963568436 -0.026344713835081173
H 1.6685878766194593 -2.820773141447434 0.5012686025104723