18

C 0.984806714292176 0.12145325931236359 0.08585884586476271
N 2.4298593455031017 0.027177229581285368 -0.029126206721160206
C 2.886383129409038 -0.7176313020060858 -1.1697248835690661
C 4.410524403029066 -0.7704076555484444 -1.2799781632231555
C 4.639023247585023 -1.9408318752899156 -2.2068477730377625
O 3.502404351645091 -2.7969296110387627 -2.1037684531140513
C 2.557570697546567 -2.2128457036131794 -1.2169564673965392
H 0.7330651721976438 0.7252858303101135 0.9600448265535331
H 0.460659686693434 -0.8385035676448177 0.165106575565364
H 0.5903436358831101 0.6366331090908288 -0.7949089329314456
H 2.8246506159430003 -0.3520112858544251 0.8140966501146261
H 2.4738345719984727 -0.2483995784182787 -2.069447423913635
H 4.821878039131075 -0.9659690032569493 -0.2886353576714824
H 4.832286744770727 0.1688654874103763 -1.6386261836366474
H 5.539851163877469 -2.519991720188287 -1.952870114363105
H 4.739108652943994 -1.625268251151961 -3.249358048557469
H 2.6544127487703433 -2.646577257830533 -0.20940926834302226
H 1.5599056450084792 -2.4450580797238177 -1.5939344278939218