18

C 2.835671006757989 -0.7839837846361407 0.8600885294363726
N 2.3907905384511343 0.5002333587316762 0.3606659185072337
C 3.0620124844880316 0.9760219915351138 -0.8325319545069519
C 2.8067224327796514 0.06848685676790288 -2.0175650026897385
C 2.803859988324544 2.457368935063398 -1.1436055236697906
O 4.202939265778664 2.7126118801140513 -1.2936031284532197
C 4.541142585977703 1.4411689664314233 -0.7448160807438919
H 2.371462350233427 -0.9661607452893656 1.830961777172064
H 3.926477544452724 -0.8644024243083464 0.9774266745301866
H 2.5157169234175556 -1.5833164261611983 0.1849724445324588
H 2.4855323953268353 1.197436803480171 1.0857897734890365
H 3.261136252025234 -0.9175451673267924 -1.8745328019412764
H 1.7331448670355962 -0.061827511128809534 -2.1621880546560286
H 3.231941332567826 0.5018094911495049 -2.9182384462851196
H 2.3730809937831028 3.0112085526497796 -0.29961594948961584
H 2.234049313315494 2.6777622347036028 -2.049204690511045
H 4.917485761938773 1.5272775888664807 0.286950897335635
H 5.276667096158408 0.9099725655296796 -1.3610355039576494