13

C 1.0387383511902943 -0.21876135294404278 -0.32267812757043085
N 2.3865231321183953 -0.10368781869427597 0.16862925097969522
C 3.111184620078244 -1.1621910217153204 0.5957281032781312
N 4.339015634855826 -1.0193192129522124 1.0317960286858245
O 4.7598926837811275 -2.300286626831766 1.3822665500247853
C 3.7838549706921927 -3.160648616051822 1.1355004193575657
C 2.694644968453692 -2.5332270326358874 0.6356087492388273
H 0.6793437201302401 0.7727406180882406 -0.596307241567947
H 0.35853987445275903 -0.6185800934760088 0.4367568088678588
H 0.9806553110318205 -0.8599314391709628 -1.2057040095160334
H 2.825216902668243 0.7913572979483048 0.20189606120856818
H 3.995166324682544 -4.1892865333503 1.3621293726637576
H 1.7492929665391215 -2.959119520662428 0.34254704680829934