15

C 1.1545402756953544 0.007020377147867843 -0.11834337517733241
N 2.5734250613934084 0.0997932571167193 0.07485092167971626
C 3.113299456466684 -0.47347832929457295 1.0668090569789352
C 2.554005537443509 -1.37901744835098 2.1403862257992303
C 3.778962057337707 -1.6050959300697334 3.009857019902199
O 4.871981307865075 -1.4490522760458537 2.123315426119262
N 4.468229947496073 -0.3249803540447678 1.3454750297340448
H 0.9488549962115249 -0.3944230389594036 -1.1122937655820062
H 0.7132613963358082 1.0115636881819365 -0.09805885417964824
H 0.627600111021662 -0.6117798484119071 0.6150435440027371
H 2.188265291818256 -2.295717625244955 1.6929087548244839
H 1.726585323754922 -0.9105316027251974 2.6900127899646575
H 3.8625995203720533 -2.607022348675314 3.4325370077134774
H 3.845425942147254 -0.8565213818057837 3.807728143111459
H 5.073429934296449 -0.2796630017353061 0.5341769327135669