13

C 3.1320032545679055 -1.2400441713010815 0.3523960694276695
N 2.6191923878010988 0.09114401568261118 0.1187840488343949
C 3.0883780082821555 0.9018216209049523 -0.8505662163307898
C 2.8024850393597753 2.1666141466960793 -1.2816204024700055
N 3.6250004291356697 2.463232513528588 -2.3399181997363985
C 4.346514004596366 1.428701624415279 -2.5138138668986487
O 4.074245967886232 0.4174856850441659 -1.6327191311918297
H 2.584295476237801 -1.6742207055621705 1.1921950317409027
H 4.196001594934059 -1.2350810964284986 0.5977329888525312
H 2.9870502523296665 -1.889078564116428 -0.516536917311274
H 1.8862587172651468 0.4478514801837193 0.7067957811429678
H 2.064986930580618 2.858418249013125 -0.8963624951176699
H 5.121671894356253 1.2394911136061328 -3.2423938091090827