18

C 2.203536428803442 -1.362308413912983 0.1648339212780123
N 2.3554792842956265 0.04925303614694957 -0.08519091665745535
C 2.877613802246676 0.7949056170411384 1.0133983149497565
C 2.946089305210172 2.312388662545534 0.858887314860274
O 2.3704646833394287 2.520549298971268 2.153207036268488
C 2.0268822937008832 1.1274582613002635 2.2716256355759397
C 2.391602342889825 0.5543402743373393 3.6057884482296036
H 1.8048656676196213 -1.8508846275765773 -0.7269958478374642
H 1.5360302985010297 -1.5988433493674776 1.0127804376735896
H 3.1838743252349597 -1.7997408198048386 0.37343452776309166
H 1.4880857912293068 0.45875012892245964 -0.4026181971936369
H 3.836517921769697 0.3676775646018217 1.3095496821789188
H 2.2824136523780894 2.690939826586928 0.061549645271004816
H 3.9306230067014476 2.7781057744062743 0.7593393143083449
H 0.9495888599031682 0.9842316224941098 2.0693862050962784
H 3.4668056950438633 0.6547002657976178 3.790016182818275
H 2.123568800005693 -0.505077436347182 3.6541763726173184
H 1.8565573037370753 1.0685748281442673 4.403946924955757