16

C 2.67189636723883 1.0537254514172925 0.019875249137385878
N 2.04217940612542 -0.23823026237968128 -0.17661482677780957
C 2.807132344086138 -1.3177853423493486 0.35236930271162875
C 2.716986297626116 -2.6610631839118684 -0.32653662746185397
O 2.012095382529785 -2.7737348794821943 -1.52341541348098
C 3.9930145932752166 -1.8799177281805741 -0.3718120476115253
O 5.0861282018670035 -2.3004624378485707 0.38922495759703163
H 2.060575765254437 1.8321694060554656 -0.44600651187845014
H 3.6921087729912303 1.1206561624698161 -0.3999214451105811
H 2.7362551914808755 1.2758256167466062 1.0889961633860472
H 1.8549479737659358 -0.4009637673559556 -1.1534677107925906
H 2.8661217946694255 -1.347170439126288 1.4288805035894154
H 2.7032713225621787 -3.5434989271075734 0.3146707978580007
H 1.0758009228992 -2.7890040103959004 -1.317929369871815
H 4.219774536025597 -1.4298671107731127 -1.3341861525992897
H 5.446992795290965 -3.096061087278349 -0.009331949310503417