14

C 3.126442942689959 0.5540749029335914 -1.0369951739155063
N 2.246634814590508 0.13555520415524375 0.03342694432747783
C 2.8030947737514236 -0.8376356276301378 0.9229032236286985
C 1.9580122961190574 -1.3263577961245832 2.0920102638292652
O 2.146668058380468 -2.7052073992289696 1.6817386627106425
C 2.8215251376624018 -2.333084261266364 0.5603414541866147
O 3.202458025249383 -3.0218134290812353 -0.32325413940552883
H 2.6188047499101637 1.2904691799329555 -1.6597039106697773
H 3.47852565590324 -0.27148350043550334 -1.6749825395537643
H 4.011279603034763 1.0324888782812047 -0.5997865221473376
H 1.3676075486709434 -0.20276888617468442 -0.3483976181057436
H 3.7969874698261483 -0.509366759252097 1.227350803386192
H 0.9072392672082037 -1.0461713888406687 2.045592749767352
H 2.352194345980589 -1.159706293645127 3.099111113520084