13

C 2.6503551163262644 -1.4215351759473196 0.4274076796659392
N 2.4681289941114053 -0.02082700569789721 0.15235417103541085
C 3.013015377005904 0.9598301852451152 0.8973652860327876
N 2.9039867612414185 2.2421902146382036 0.7207381881350613
C 3.6639710209228356 2.7757445239264653 1.7507772424341723
C 4.188400981830858 1.786510833843679 2.4905164030628337
O 3.775759431392016 0.592540314173312 1.943655911254996
H 2.096746487940078 -1.9943569845104088 -0.31942338230271256
H 2.27366853201148 -1.6922073719813815 1.4216653233003862
H 3.69828941039503 -1.714312442238745 0.37556712952867244
H 1.9130608713862678 0.2798834379381346 -0.6215635816886911
H 3.769157703474535 3.841307542580858 1.8857450910795612
H 4.8182590891179675 1.7315813870339292 3.362067113846038