15

C 1.0482234026407262 0.22665856024460987 -0.04849645849668109
N 2.4793538683212253 0.21941630501974047 -0.07753399050961939
C 3.0264344609008007 0.4162436321236307 -1.1973355232748657
N 2.478592207740971 0.6405213352688136 -2.429799786422023
C 3.4539443284184976 0.8188142433647384 -3.4714208945286487
C 4.754793775497899 0.6606630035221841 -2.672305609828736
O 4.374878381585951 0.4220472602065099 -1.3223359069966911
H 0.6952173133548852 0.04881727540580285 0.9639397359366433
H 0.6048955242451162 -0.5584618262125746 -0.683128917946186
H 0.6180649462561183 1.1942940199070888 -0.37241495522840545
H 1.4851199854745063 0.6688520619263949 -2.568668255213301
H 3.373911169429707 1.7943244280296482 -3.945242880213295
H 3.3587212571729985 0.05295127624371265 -4.253456351068783
H 5.363582480771356 1.5722965656281385 -2.702909068077908
H 5.354358834286255 -0.18188328996695746 -3.013174983185208