13

C 0.9273694013283285 0.06812971693299173 -0.008394863075398922
N 2.3680511217961837 -0.0004687259458276516 0.01042888783000966
C 3.019915614761375 0.9256447635141434 -0.5305518451409311
N 4.384576830535875 1.0437575584543022 -0.6135591113136005
C 4.71215234640895 2.21394704324396 -1.285674541824938
C 3.5629825116254668 2.803558782249359 -1.6105538642457495
O 2.5079338162316596 2.035594911708657 -1.163929489630684
H 0.5216948568200873 -0.8032752061196452 0.5022984673624669
H 0.5262999630410842 0.08315773296116274 -1.0271068854180234
H 0.5517651227639557 0.9650325244447757 0.4995375977616408
H 5.003348634014162 0.3579756024939128 -0.23683107768869854
H 5.721753698056133 2.514111526372554 -1.4776447085335993
H 3.318724950748399 3.712738717846825 -2.1284668942803253