18

C 0.8974549023501522 -0.05152178254853014 -0.24968308834904102
N 2.3173853177540473 0.057009034250372764 -0.02574423377359571
C 2.9481584204909863 -1.229509717629245 0.15133712867707053
C 2.926449771086547 0.9573973824739992 -0.965746092889847
C 4.351229647115231 0.8629829858340493 -1.423786641852075
C 3.239415661293792 0.6239256416833073 -2.4035141893654193
O 3.0602002099546532 1.5892584638646832 -3.388665083920935
H 0.43582968516984416 -0.6000212088175626 0.5695965280354296
H 0.651992793594939 -0.574119277922872 -1.194183724112265
H 0.4501900071800424 0.9429294263645175 -0.2881468724227293
H 2.429966149426976 -1.759223142027114 0.950557037689385
H 3.9916201970116956 -1.1079700253697213 0.45167162906287256
H 2.9146241103820314 -1.8718164789485086 -0.7491417998669263
H 2.571895786773427 1.9814841846652533 -0.8323839339972781
H 4.95561657405987 0.019611780285509715 -1.1464491931018026
H 4.889052112299888 1.8021205793967423 -1.512707510183959
H 3.104290718099051 -0.4011650844900528 -2.722951150018602
H 2.123064431796664 1.6806947453135077 -3.560112464788151