18

C 1.0171590447940222 -0.16085409992422886 0.33496123371358716
N 2.2588585560484478 -0.2989242646346443 -0.3955640202912974
C 2.6890836031643603 -1.675220320117993 -0.5057431540369415
C 3.9839781150381506 -1.7597292336512749 -1.282275766449764
C 3.9396302945205157 -1.30310027489219 -2.706657769707635
C 5.003941245307074 -2.700496660605757 -0.8345863474296846
O 5.11724755099945 -1.3176932577525995 -0.5333928437765559
H 0.770870022051133 0.9039991696969798 0.4413032463731358
H 1.029124983166373 -0.6156507542141441 1.336326695477324
H 0.20845916059762915 -0.6294755793044341 -0.22606652616375025
H 2.9871559644099683 0.23461680159669643 0.05948947351274896
H 1.9145601306787172 -2.2389751247236407 -1.030322292406411
H 2.8378665059114128 -2.158189258188203 0.4803226442131499
H 3.5429286608040305 -0.2846231345047643 -2.7657696237182394
H 3.2918186384164536 -1.9494089538798764 -3.3016716867442466
H 4.942082715386805 -1.321947888094063 -3.1438686612210804
H 5.727742570532492 -3.078332847992956 -1.565040682090929
H 4.822051608403597 -3.354023528782524 0.0144209327978406