18

C 0.8826984997759586 0.07730767392525632 -0.22492842557785508
N 2.313681591103628 0.19101727018548742 -0.1257134814415054
C 2.860906879899022 0.9770718465070519 -1.2084363046534417
C 2.755857835940099 0.5574681967900483 1.1951318626545961
C 4.258010121931651 0.4951236443883226 1.5109967681312333
O 4.230407125295775 1.8055775225416202 2.0837619694303604
C 2.883883680900015 2.0250612155180803 1.6719634933893115
H 0.6152184909527683 -0.34772661092623386 -1.1951510966530163
H 0.36361268650945416 1.0474688134722003 -0.1334028396554806
H 0.5066847763516827 -0.5884857823886781 0.5552211662037592
H 2.6345079266414104 0.47747370572690634 -2.1530661055373765
H 3.9504325707910843 1.048672902521698 -1.1250636202902768
H 2.4449022811751773 1.996643995683136 -1.2664979973332897
H 2.1771551425622575 -0.0402323017832318 1.899877068594458
H 4.9175212686199545 0.43895243215811575 0.6341888449867812
H 4.5690271162508 -0.2649218066093937 2.232621414608991
H 2.8177958579530302 2.776642803758334 0.8827290671761331
H 2.242112264890041 2.3318126655460216 2.508778168545336