18

C 0.6202125833461657 1.1036125954226845 0.17931912996225402
N 1.9386723642359125 0.5277200051329056 0.35307036876088777
C 2.5787401115404864 1.0423648361125402 1.5383388634478563
C 1.9101604684101385 -0.9223476075931337 0.36629909069326194
C 1.4937737667259727 -1.5379171795597544 -0.9412355707920214
C 2.4630536488035544 -1.77095514102299 -1.9936295239453117
O 2.000925269297134 -2.838566119072312 -1.1851672101737085
H 0.7007316991318424 2.1943223020049136 0.15973279829151152
H -0.07984431989950129 0.8212220139507719 0.9853256991881888
H 0.1859293030137798 0.7896174834817454 -0.7748858408488868
H 2.6425169839943172 2.126541832917864 1.4736832691395814
H 3.582615273642659 0.6454187367380284 1.6225235544229593
H 2.0272009936395685 0.7843915249519433 2.463386592182469
H 1.2531785704673657 -1.3057866892826866 1.1695961416438247
H 2.9202847650691095 -1.2912055362990424 0.5946186742405971
H 0.44781742936114133 -1.411468321630567 -1.2297134391341527
H 3.5017825415328807 -1.482948260491985 -1.8335370958091723
H 2.1379615571007937 -1.8005415215375 -3.0387437808830646