18

C 0.6654415439912793 0.9242422034149829 -0.465252080596701
N 1.8895529372630535 0.3272899051959736 0.014571751280101028
C 2.630050170879006 1.2664826270790206 0.8244910550855533
C 1.6591342872776458 -0.916919708312173 0.7337071544017334
C 1.1657167580786014 -2.0335305181256182 -0.15915772664231118
C 1.1913949164107125 -3.3821939085920563 0.4800272999832865
O 1.5853131146235673 -3.6099287073249036 1.591473008069918
H 0.8983171969151016 1.843724656431224 -1.006925788432108
H -0.042507680107162146 1.1652276531811718 0.3473887245579047
H 0.15575375246366843 0.2510573844958094 -1.1638876893828718
H 2.849152659093784 2.164719966440294 0.24420414634497511
H 3.573534585486099 0.8191308493069349 1.1400979762559524
H 2.0768614830714203 1.5714608869463107 1.7331333843875252
H 0.9523278569105879 -0.7751809035553373 1.5717736888964182
H 2.6086655780385226 -1.2293293689702112 1.1837460957093435
H 1.7763342189319187 -2.085508881953465 -1.0767767032105242
H 0.1336359416067721 -1.8721550853261013 -0.5166331884278796
H 0.820105716078461 -4.208982842738729 -0.16652488209447125