16

C 1.0309926592542609 0.13943311934469266 -0.031298159037690565
N 2.4734322253309546 0.14526427667800804 -0.04159367613731467
C 3.217267801522401 0.34475754432034944 1.0636702492476215
C 4.568749816658269 0.3702792987007837 1.1664937141425324
C 5.524356024230856 0.17124456553025458 0.04393527794755879
C 5.102128458941507 0.6129591780411169 2.4911154192222176
O 6.283916735016308 0.6665521533348361 2.761025178063665
H 0.6663351656785301 -0.043571252813091016 -1.0407444730227098
H 0.6299091363879573 1.1025766857995842 0.2996246014852767
H 0.6302859709692994 -0.6447306805764071 0.6241856133437284
H 2.9432678074283607 -0.009335850896185504 -0.9085713740200478
H 2.62790617586914 0.5073105545591468 1.966812547453488
H 5.031930857040947 -0.006288479764152069 -0.9183871918683183
H 6.180139028195223 -0.6790860015580511 0.24515993379090767
H 6.173881468139642 1.038470988878454 -0.0680950425128235
H 4.324800505011781 0.753799694876207 3.2818471209451046