16

C 2.925091239514464 -1.0084750011605625 0.0322940211139639
N 2.3586108218905704 0.27938868701546393 -0.2886624932027805
C 3.09088005585085 1.3781526777665813 -0.5404711769417534
C 2.2799081482773693 2.610845579396627 -0.8512690169779193
C 4.453577063729063 1.3659941595265201 -0.494919475485358
C 5.258262874097939 2.5272370465951024 -0.7501634210718486
O 6.472445430274294 2.553617075736201 -0.721809327725412
H 2.1170204956165772 -1.7177490400920452 0.18198872439702501
H 3.5184120707979445 -0.9650749156989052 0.9483084737335497
H 3.5661557436095013 -1.3709004304792904 -0.7727745094185662
H 1.3632925576998398 0.35575033905977327 -0.3324866499262992
H 1.2080139408736774 2.3806010814476335 -0.8291271459483428
H 2.510192145382231 2.9940264869625586 -1.843705923253284
H 2.4674633638040144 3.3994023206708373 -0.1281671882462731
H 4.9905413374974925 0.45766476237017834 -0.259580868265083
H 4.710577767589093 3.4685916770786145 -0.9928699014659518