18

C 3.061269924368104 1.2521258716295687 0.07671909588276822
N 2.798073486252928 -0.16869340043135933 -0.020146399909029583
C 3.1222646342451545 -0.7970899812054469 -1.2887856231765131
C 2.6229046702292806 -2.247276675223658 -1.2157489262127583
C 2.5727400504081857 -0.10561305307533393 -2.533135414925151
C 4.638673625203181 -0.8986156332491423 -1.3387690458734887
O 5.322396169558827 -0.6997823369446936 -2.302657717677206
H 2.865310331193329 1.5832435892849859 1.1059953133190916
H 2.4586647804598365 1.8787379330370577 -0.594095071404058
H 4.114099671858235 1.448963714304279 -0.1334752350382151
H 1.8386976560422106 -0.37952948986886237 0.23379840195822332
H 1.5335291767378403 -2.246495588026074 -1.1183630882248847
H 3.041423690281284 -2.7640879728431775 -0.35124595969929334
H 2.8729008078950544 -2.7926320024532183 -2.1273256012448507
H 1.4802665501782983 -0.07519451593968275 -2.493698341823142
H 2.873232993748163 -0.6439022866536154 -3.4368485328561666
H 2.9613818632463706 0.9136733208372039 -2.6267041384945795
H 5.081741165509144 -1.2190521330781159 -0.36853920362356657