18

C 1.005697463286557 0.0326523198491801 -0.01168840303745086
N 2.455528102500036 -0.010905678750270268 -0.083469769265361
C 3.093928123635275 1.1666873248698704 0.5038475678862451
C 4.58330963570483 1.0242795167488636 0.4993519218739709
C 5.35820699932827 1.8850959086228198 -0.15620968038326402
C 5.147791010615603 -0.10683843357149918 1.3114702011036052
O 4.705171017921973 -1.3781982021892616 0.884710359764944
H 0.5850724403384391 -0.8235854882153382 -0.5228396700098232
H 0.571503528239863 0.944763986878585 -0.4501249924899882
H 0.696882444311824 -0.01598436193837191 1.0331511072383792
H 2.7473905716204765 -0.08072396180466898 -1.0566419095011066
H 2.744371859018664 1.2311364698470089 1.545030257754168
H 2.7929926262710487 2.096714762636202 0.009045552538305614
H 4.947132676486661 2.716738674447878 -0.7063365911231362
H 6.44135022275856 1.7904218045326528 -0.14713761412641316
H 4.892216901178027 0.05133917710436237 2.371051519581107
H 6.246618003694697 -0.10657907894679111 1.2470449456502892
H 3.76969652723596 -1.260853560864462 0.6304237156755382