18

C 0.8786809487281939 0.18201535828594678 0.09365212552787115
N 2.3225120546390348 0.2328176318120069 0.03973957951249803
C 2.9467545194814755 -0.07945734730522379 1.3103477130782388
C 4.455855525798029 -0.1401854734244723 1.1857226580344418
C 5.10891592166942 1.207457933850476 0.8531386048420198
C 5.098727012777916 -0.7018456244633894 2.4316695334484093
O 4.516677462197282 -1.1250444414990604 3.3902706245345757
H 0.4658336139390907 0.47909325333108393 -0.8668048139191147
H 0.4423950241969363 0.8192641478066292 0.8824270131527666
H 0.5562114040587013 -0.8415750382305215 0.2872709250369111
H 2.6143476482416266 1.1530764986906978 -0.25801070067201987
H 2.5825499785645536 -1.0638541034750066 1.6222840227749873
H 2.675023333898734 0.6157669472113996 2.118716978579035
H 4.723745127345941 -0.8410731807107725 0.38697543918638766
H 4.810440153359884 1.9780257756340245 1.570803313530881
H 4.81473926901033 1.5464082015579639 -0.14213143561740058
H 6.196869013909987 1.138210917550534 0.8622661478181802
H 6.218473581637258 -0.7116472031698897 2.3998309490180745