20

C 1.1497192108891583 2.7586753801287225 -0.7306653092750449
N 2.5936093714315605 2.7134993702980954 -0.789533702660563
C 3.114480998454102 1.365728646798659 -1.0089961765221263
C 4.6269443425106 1.36873473749003 -1.1272685981229764
C 5.19140102735589 2.1711142591771275 -2.2916013351842666
C 4.76143626590139 1.6414662615030304 -3.65684695169144
O 4.8868538645572 3.5458634373736975 -2.1696674185124
H 0.8175693396793667 3.7741573210963377 -0.49461131861205837
H 0.7126880442206319 2.062513875825593 0.006188327920105831
H 0.7352928559068519 2.495983674262265 -1.710161900179383
H 2.980081092398551 3.0763617908721423 0.07808356561200581
H 2.666229342327825 0.9852507959784449 -1.9362363037980383
H 2.8008782458745647 0.674494040800166 -0.2124850678941698
H 4.966162188859156 0.3258145448504403 -1.2081144064280156
H 5.05932937078896 1.7599859367362582 -0.20113085456026208
H 6.290389960729991 2.1111788454543157 -2.2364109926033025
H 3.6792257473442285 1.7127201454111585 -3.7825106446193084
H 5.052521893176813 0.5969845671225121 -3.781868053448963
H 5.229126225743533 2.2307719303892717 -4.443130866118919
H 3.953727564233914 3.593810904026768 -1.8981295130362847