18

C 0.8056426273736422 0.2847331637470141 -0.058593381555741786
N 2.2481487564096 0.28663342345607284 -0.04878263568678731
C 2.808675699271884 0.14582905095344192 1.2729058904977635
C 4.329420636959476 0.09257912781276169 1.2315205602724222
C 4.87449867658425 -1.1206142028579806 0.46632587413636034
C 4.865151741351292 -2.3825813153924105 1.2734006837015588
O 5.689013874060071 -3.252055287130698 1.191398213258545
H 0.44311175198316094 0.4564458909229767 -1.081055010614848
H 0.3467133894503421 1.043571257284512 0.6018081328886994
H 0.43182274724358016 -0.688406874583032 0.25560907398725913
H 2.595217179589612 1.1430267505460752 -0.47129134312030196
H 2.4101558788228554 -0.7824729327152192 1.7126249391332007
H 2.4993579120539557 0.9625557357547667 1.964969640994555
H 4.7216307762861005 0.10708905511689153 2.246659203710212
H 4.699596380794802 1.0045819577332868 0.7490415050313426
H 5.898013881815721 -0.9600915406942532 0.10174420225757037
H 4.236509573574892 -1.2935258266194134 -0.4073540776129291
H 4.01674505016427 -2.4824613302320726 1.992018948468725