15

C 0.7486337179599014 0.3577686770878299 -1.138527585696424
N 1.9668972827288638 1.0876048684118136 -0.9824693008328049
C 3.0307913713978265 0.5607324375228738 -1.4366306256683055
C 4.323905338246136 1.205684641285636 -1.3525905415670696
C 5.432665366460013 0.6148070926352627 -1.8229778179386504
N 6.708365816065237 1.1078103550826635 -1.6642454418522699
O 7.55662909296911 0.7763191345152577 -2.7417522350379597
H 0.2889296660566306 0.1964915803245946 -0.14945053035820602
H 0.8674074269911672 -0.6138580156883783 -1.637551265628575
H 0.032616152436905674 0.960760344382904 -1.7078664620411648
H 3.016125296033368 -0.42665056127499595 -1.917089286241122
H 4.350598256135813 2.1803145037957354 -0.8812720784155459
H 5.3970903631668525 -0.3552611498443195 -2.2987235037007405
H 6.753687108137651 2.104580769271407 -1.5295052441118737
H 8.285813343881273 0.30280372228775293 -2.3212433445176135