15

C 1.3229204447166854 -0.3621683784926535 0.15387510521505626
N 2.7035400651525388 0.006280671494927278 -0.027905954936972677
C 3.2076777485092363 0.14277194413104055 -1.299853113530105
C 2.533592167875273 -0.02747799332559692 -2.440126321010586
C 3.5176256072439345 0.21744610817344637 1.0527983315144802
N 3.109628733091951 0.09940108316498734 2.2550435196098837
O 4.162991362221843 0.37611765708352823 3.140986739070469
H 0.6596192153347242 0.3821767711675728 -0.3072184229428412
H 1.1141108111723175 -0.4129483972047151 1.2169774722007607
H 1.1185994449273908 -1.3287112831893497 -0.309122753326035
H 4.25714981298132 0.4250675391854447 -1.3217969617031742
H 1.4848038059028328 -0.302649963621642 -2.4731031268237538
H 3.040941178522182 0.11050788295585479 -3.3860830374891266
H 4.544554772613788 0.4863289911271438 0.8162827377065308
H 3.7486227400445986 0.25325270888717005 3.9896302825474264