17

C 1.0722419598739057 -0.16635151129715697 0.18034724583783435
N 2.4855102896473835 -0.09049304536848579 -0.08419699085243414
C 3.139028979929203 -1.1125984526497037 -0.8636299865211532
C 3.1610116540966096 0.9812031113784133 0.42861984665816744
C 4.636374521844921 1.1385269011583934 0.1999025004503087
N 2.4855215643113815 1.836277802452066 1.1151799459003264
O 3.312163247024276 2.8696724795021584 1.5702280884368314
H 0.666907883855534 -1.0628879536679168 -0.28722216416002855
H 0.5460160783672211 0.715435715291195 -0.19721875462349575
H 0.8730652206842232 -0.20238423317262214 1.2586646293345323
H 2.392774488644933 -1.84855525054412 -1.149288891772535
H 3.919595061217978 -1.639319927501247 -0.30308900866625976
H 3.5840729296112266 -0.720843166056163 -1.7809477177737527
H 5.050539863935055 0.3306552198246566 -0.40409586744889653
H 5.146965054900378 1.1796163198108425 1.1499721246150822
H 4.826022638626339 2.0888856987291664 -0.2990863064554227
H 2.6991725178633117 3.417871926343227 2.0537906209116166