17

C 0.9475055682166869 0.19442698846109646 -0.11743829567258737
N 2.278037776960196 -0.08348504671953198 0.37783749589144844
C 2.3794135511730494 0.205562106898993 1.777460107020012
C 2.686114616131955 -1.4419440026995967 0.08360218085151996
C 2.9126471438685644 -1.6446676151221498 -1.3754180231300006
N 2.3371779826075456 -2.600235099059411 -1.9784704341139379
O 2.6998500307487925 -2.6523613562167982 -3.31973610876039
H 0.7035255743699619 1.2453875189341546 0.03380960974423866
H 0.16474905917461202 -0.4138412398823536 0.38235753171038356
H 0.8825403184599153 -0.009235115217858159 -1.1935497196924645
H 2.1259388870939864 1.256222222909075 1.961120352759143
H 3.4068338139033854 0.051557073419209384 2.1244296596854206
H 1.7192249541429867 -0.4115316096319833 2.404245165415613
H 1.962901303998014 -2.2061776176410706 0.4418136779188576
H 3.631939721605504 -1.6189009185861591 0.6035256204169163
H 3.5893581487485906 -0.9713845419449517 -1.9024369793342863
H 2.189335771784248 -3.4029787262853612 -3.6462447225422507