17

C 1.428576730187318 -0.5830519017663728 0.10378490083070309
N 2.808978111533539 -0.44049092349886604 0.5353616361232193
C 3.09562041641463 0.7717219054604953 1.2970527068724622
C 2.2263584049839222 0.8788919172530457 2.539728428622505
C 4.559776778013129 0.8119763464136781 1.7279631358231342
N 5.163264954638326 -0.3985756045424247 1.7797241005705862
O 5.099477092328186 1.8487813369797976 2.035186466407428
H 1.3556534242303981 -1.4244126924763507 -0.5835686316058089
H 1.030013387689712 0.3111640912593196 -0.3888166128237235
H 0.7920770478472836 -0.8104200170785247 0.964427126652801
H 3.3978529176388927 -0.4412831826721372 -0.2934520402499754
H 2.9485078333921293 1.685971060650742 0.7015001284922959
H 2.305591647314773 -0.030547376672676433 3.1411028422837015
H 1.1830087235773707 1.0320961611956803 2.2910500884078253
H 2.564897010173263 1.7283332845450754 3.135437550626404
H 4.6236573300027155 -1.2263378408840133 1.576889519586863
H 6.1061256289135555 -0.45868544260355243 2.1336802918030613