17

C 1.1823830761765843 0.23231207387944963 0.32075533103387543
N 2.608343632379874 0.0858420486755842 0.1363300073296892
C 2.956128401584414 -0.6578111862182271 -1.0557950503816784
C 4.46413401566684 -0.7975339776101823 -1.1895049448615354
C 4.868945217324298 -1.4516128848100096 -2.458832477259367
N 5.490177662313278 -2.55590332232342 -2.4458268325536086
O 5.768926913561645 -3.010199899191099 -3.7225817863016553
H 0.9813427942072602 0.7430133005460524 1.269057928688832
H 0.6280817182598378 -0.7220611714102829 0.33137914355599996
H 0.7702992023078754 0.8445963743059983 -0.4838456902780702
H 3.014032247642107 -0.3718189466115769 0.9498213108536958
H 2.5643051975465894 -0.10305359606833484 -1.9211449570194559
H 2.495178176558206 -1.6526076208507183 -1.0918223632521424
H 4.8716153428047795 -1.3832216912121937 -0.3565400246811774
H 4.90986666401106 0.20159785942636554 -1.1341829921760083
H 4.611434620666542 -0.9751780604126107 -3.413839359840305
H 6.233152739839333 -3.8254776394170444 -3.568141870367945