18

C 1.1314332144305659 -0.5182583798535192 -0.5994626340624356
N 2.487503700361622 -0.29704962005192964 -0.15704200417911485
C 2.6251804034201105 0.866280060533373 0.7056897361707732
C 4.041299046196085 1.063750048106893 1.1238362235966906
C 4.708510987147721 2.1812889381152054 0.8321107767417459
O 5.972308262259146 2.503237754714359 1.1425226212354875
C 6.707783662316192 1.5380847466486167 1.8686692547199726
H 1.0995331818008554 -1.3690283972432027 -1.2864022191014444
H 0.6748588835954409 0.34638449762753615 -1.1113345936786792
H 0.5029576491221571 -0.7711653848104836 0.2555112095190504
H 3.102956703915536 -0.19651617683005743 -0.9555512254807175
H 1.9954744992060747 0.6877226573378636 1.5859910612537214
H 2.2347638832017536 1.785317958043108 0.23230904942926647
H 4.508675737805932 0.2503904353427479 1.659711478758518
H 4.243761916037393 2.9913521569098407 0.27946056635338684
H 7.695350284786337 1.9628840397522704 2.0327348524962665
H 6.800510281124865 0.6085947225140513 1.3064302680792819
H 6.231737304535525 1.3222673847367252 2.8370859514514817