14

C 1.1219814597267508 0.48359804832385395 -0.022815464233929574
N 2.5450260693911306 0.2584793278117181 0.11711739663396449
C 3.0657015910342227 -0.7094651946317695 0.8891471707677532
C 4.369748162697718 -0.9840859425309356 1.0735083856669134
C 4.734252096280591 -2.084829193055693 1.947100002491074
O 6.082303449648153 -2.23700618454758 2.037372899888203
O 3.9775897642659754 -2.8059144862951717 2.55014118662951
H 0.9652253143898075 1.318493586428213 -0.699698684576306
H 0.6599679170800054 0.7241815143836795 0.9406448340705226
H 0.6213821705295585 -0.39122179634799775 -0.4469887341954814
H 3.1762565066576096 0.8605201230450328 -0.38448045275920584
H 2.345229826899994 -1.3346100389678304 1.4102717277198715
H 5.161114670318432 -0.4175351324608428 0.5978083750826989
H 6.211030172827822 -2.9822808671516454 2.632746610902754