17

C 1.106973414280094 0.3604514818767893 0.2666980141243092
N 2.5232139696514175 0.1124981662691735 0.30439016558497745
C 3.013022425341771 -0.7883421254527407 1.0650332579447541
C 2.255593218821494 -1.6500187340187402 2.033456838642252
N 4.357479821074382 -1.0192213728903017 0.9451708107462652
C 5.193664480941779 -1.2724373244251372 2.0899782863438268
O 4.9768465704894735 -0.10619923250513756 0.09964376919468192
H 0.9075541128166508 1.2165615493055681 -0.37628355850029516
H 0.6883979139451802 0.5969344805079241 1.2605739923540857
H 0.5456533799820855 -0.4910544816745566 -0.13498139647600446
H 1.232699319864108 -1.7904356208086163 1.6908107812163402
H 2.2158019451069944 -1.1751800985125298 3.0204474803590617
H 2.7119920348571767 -2.631868185498716 2.136352834498249
H 4.746249359324595 -2.0350802555992775 2.719327174304845
H 5.352504809311749 -0.36371529769216493 2.6829479513642784
H 6.163953201016966 -1.6342116858828437 1.7378272506141021
H 4.195009088082804 0.41895566358821423 -0.1994041826973677