15

C 1.1714242321403676 0.13343651837161452 -0.18950046627445546
N 2.497624135731556 -0.3241472543047071 0.13223373960560592
C 2.654142577630423 -1.531132415195762 0.4907632110612065
C 1.5641308236934075 -2.5577735583961143 0.6261204355781032
N 3.930257314719038 -1.9967557051688605 0.807973775785683
C 5.087844580666063 -1.267230187253969 0.7660557634359527
O 6.160914125074998 -1.7386712382335412 1.046708971895362
H 1.2266547122967282 1.1817420831351542 -0.47827606667693334
H 0.4811311541168049 0.055729111108120566 0.6621185827824437
H 0.7197105882986748 -0.4139219643634323 -1.0148347152471762
H 0.8142027806941328 -2.214872539823517 1.3533253122371822
H 1.9355448535989195 -3.5272603654911565 0.95278379198985
H 1.0545434138111611 -2.682511676969872 -0.32398015449327555
H 4.031889756767137 -2.9594093870722933 1.099058949292742
H 4.925040185449098 -0.23203373763816593 0.44382557583142357