17

C 1.0759736805125286 0.04955575447664295 -0.23097683454725182
N 2.496990911392075 -0.051510674705722015 -0.0701458683258213
C 3.244692949684567 -0.5631165268887519 -1.1902098851640057
C 3.0939245880468773 0.6747767664682514 0.921697383778692
N 2.5128708099430686 1.3750704446818307 1.8158463331192225
C 4.607886082370069 0.6393411605979172 1.01839501159834
O 5.049783967658795 1.370953538578133 2.1109065971166525
H 0.7447595380522937 -0.6844949816944613 -0.9609773020343386
H 0.7577729814060542 1.0374800270632285 -0.5676756026887808
H 0.5643308053426063 -0.1792480098063536 0.71327146686468
H 2.7544482320247 -1.4576747790035105 -1.5720392121355264
H 4.258634088032046 -0.8499139212522444 -0.8920181589531757
H 3.3304911636903465 0.15641546948741722 -2.0132299122589576
H 1.5096814367281584 1.4207972375151934 1.7276810574408554
H 5.036061478932526 1.0386116385767876 0.09043907442718625
H 4.939328870540329 -0.40772833263230457 1.1017435457387517
H 4.221542139253568 1.717679168568558 2.5038030485952514