15

C 0.9537002459623974 0.10575812723048117 0.27416506155422216
N 2.3861876590652433 -0.09123990481036244 0.11732895251057772
C 3.1478923788927315 0.8836066224548906 -0.6102372245626067
C 3.0617986120620437 -1.1613857546170199 0.6169506749541407
N 4.324440416664456 -1.4041540869991522 0.5226642906197118
C 2.352765442721261 -2.2371448634177926 1.392069400554676
O 1.1894756073436756 -2.291027746757319 1.6567211458318825
H 0.6816731452651698 1.0277885917043859 -0.2287826850877797
H 0.6662654864688876 0.18068692827582844 1.32548209982185
H 0.376744398216011 -0.713613379019137 -0.1660455330124924
H 2.4917143212453494 1.6804404626088867 -0.9522173153593795
H 3.64266817073098 0.44266117328358 -1.4901996504120687
H 3.927776778373463 1.3406829740432444 0.01753895623925266
H 4.8288417311162135 -0.6908037946376197 -0.0016540275706541797
H 3.076404407903766 -3.0110188300754155 1.715671051442032