13

C 1.2917971462818265 0.17909002802901894 0.3474493140442305
N 2.671513743675028 -0.1784926044020385 0.1329673590329114
C 3.4716832887075686 0.5925099962939832 -0.7782472780199746
C 3.5862193284648236 1.9911968457450984 -0.3677243664823128
N 3.651644146510347 3.090350325310308 -0.04115126731111926
C 3.2467466234686735 -1.235540756616868 0.7675304502570381
O 4.399824858692584 -1.5931639108407043 0.6276162426129462
H 0.7246102246203558 0.11493769616343677 -0.5896886074816174
H 1.2150939133659495 1.2017253994887136 0.7274839453710451
H 0.8511762233908218 -0.5012121405067069 1.0693902922160698
H 3.042644917419652 0.5707940701554959 -1.7920776161178116
H 4.4639419219940155 0.12763719912623053 -0.8127058702549927
H 2.5386824124919993 -1.75356190130711 1.438501252106483