17

C 1.0446393588390852 -1.0196820113125624 1.0151038327669022
N 1.5833713815910828 0.08495053497056261 0.267566339217679
C 2.6627878599430206 0.8630925428110102 0.8508171437190606
C 2.196346523156369 2.200045800635095 1.4133752295720396
N 1.1720094890039696 2.007910684480513 2.4377600770812538
C 1.2091022414997057 0.3369233359063425 -1.0020886837710605
O 1.6590169291720305 1.21218186807417 -1.7124961856371732
H 1.7998478602221213 -1.8015301722254509 1.174857087951468
H 0.2131900363841778 -1.4579098764458014 0.45373257190824595
H 0.6771383045627892 -0.6895534083137673 1.9859571983161526
H 3.4031768262519067 1.0487720777431908 0.0766896081027179
H 3.111113288718258 0.2650036015791359 1.6485872852674701
H 1.8731742839257077 2.842558375180497 0.5849444301657845
H 3.062132736078524 2.6773436796985854 1.887577793366109
H 0.28080891254880186 1.8081565783960671 2.0015921040799847
H 1.040981279034927 2.8641178650256593 2.964139323982473
H 0.412455591014239 -0.3591762327307733 -1.349705418152751