17

C 1.3805361235841964 -0.5030497111500228 -0.3438485849779277
N 2.79122264355245 -0.25860790066063627 -0.085195826527549
C 3.021493130230175 0.9617917545184074 0.6651042129708149
C 4.473309475283048 1.1046752432265932 0.9731884792441272
N 5.089946462584583 2.1376649559071703 0.5759815292216638
O 6.4152186823910515 2.1222278218987416 0.9569525348126191
C 7.053052404315224 3.2791876115209178 0.48337074553995923
H 1.2718657636235282 -1.4013081828927676 -0.9526027803810417
H 0.8671065874843942 0.31800149725767385 -0.8452332735704458
H 0.8688118425134155 -0.6887382800358632 0.601824366809236
H 3.295903342366455 -0.2078420186698325 -0.9651381429071733
H 2.4635563667231493 0.8795161136021804 1.6031185324491537
H 2.666181186407599 1.873432802923095 0.15521758964468646
H 4.971773244654977 0.31530246829521613 1.5293962967841022
H 8.090328034101972 3.207567262921357 0.8143707646320852
H 6.591734516739226 4.185205216676492 0.8949377890726594
H 7.022464467011952 3.3234957856053375 -0.608834995385733