18

C 1.2710261954584643 0.2988752051362828 -0.17516107874535072
N 2.650963688864118 0.37392450964134494 -0.6315155996900909
C 3.1799535298856942 -0.8892250445899532 -1.1448280379473381
C 2.6357876892027017 -1.0909698102753347 -2.553495702830884
O 2.8333248459109988 0.05428852659309095 -3.334876972825932
C 4.679561367247852 -0.8300426452671199 -1.1512798112428049
C 5.45960311347224 -1.58271354924453 -0.40479060310691845
H 0.9930606693020815 1.2628132765389115 0.2544979005279869
H 1.101022319401516 -0.481962789872212 0.5642343680132289
H 0.6065723150956357 0.12058404882053109 -1.0192438593425073
H 3.2472357892547956 0.7147537284009812 0.10698959080504564
H 2.876580028287432 -1.7425804137463201 -0.5216136051608792
H 1.5707463452646753 -1.361395837868129 -2.5022938389246594
H 3.1533544847858064 -1.933182815540661 -3.0406351598550545
H 2.7347700474400787 0.7941478020879602 -2.7161747067389417
H 5.110794778224602 -0.10309618526993226 -1.8415419770672428
H 5.05415348919963 -2.3225783732210816 0.28964922361607226
H 6.548784685075035 -1.5164164534220304 -0.4571687634733106