16

C 1.0626413135589408 -0.17772060740674245 -0.03950907251943593
N 2.421942922187595 0.22621580639334996 0.25357399437150474
C 2.9340082740581717 1.2723550801364465 -0.6180942596295828
C 2.4554262930919917 2.635140067026736 -0.08588087922214953
O 2.746964086920171 2.75732636253628 1.281578981743581
C 4.387605617459538 1.2056021169936924 -0.6819172007068067
C 5.588500782011206 1.1304812075773143 -0.7331774323734929
H 0.7834591525954757 -1.0015046692413623 0.6189851610275765
H 0.9231307131312158 -0.5097065773252731 -1.0853272525321973
H 0.3666578449471552 0.6445923363308579 0.14899001922995062
H 3.04469104967076 -0.5712703681785763 0.22787909471079149
H 2.5538464810658024 1.1625816371984279 -1.6549383029763176
H 1.3742687065700145 2.721051356555606 -0.27062745110844355
H 2.9556047886415286 3.4378305645880944 -0.6271460583144826
H 2.640328834911752 1.8729160774216473 1.640617846029164
H 6.652387151665761 1.0788479536604827 -0.77618599557279