16

C 0.6909009450789694 -0.7138050028043503 -0.08666769457862263
N 2.035404699582373 -0.20843514817344103 0.11026183177698375
C 3.04338506157401 -1.050721130494678 -0.4777224239268724
C 4.436838959981394 -0.438267179784005 -0.4327322851928869
O 5.402676380850586 -1.1237520379408825 -0.1971677874479649
C 4.531247798058116 1.0145339550667127 -0.7242608247702681
C 5.694997624729268 1.6372617079645084 -0.6785767663302087
H -0.02042418796866319 -0.06318280600673051 0.42133194616777103
H 0.5347006144963541 -1.7382225275372922 0.2772609053005574
H 0.44630600792507763 -0.6971339655895435 -1.1556447137232684
H 2.2099331320754474 -0.09001073787551336 1.0909278878525372
H 2.80728001019576 -1.1922968346397789 -1.5350371329353536
H 3.1174768382615974 -2.0674275291785986 -0.03555426011987719
H 3.6094318676445365 1.526520036821617 -0.9596572957968457
H 6.598709857258452 1.0941229429005301 -0.42047607276479676
H 5.7850751698801455 2.69612255972534 -0.9011493405792341