14

C 1.097549432471637 0.028544354952497953 0.0862235818184439
N 2.492974761236919 -0.12260163699969046 0.4019849299357431
C 3.1533961686203145 1.0930672884784505 0.750390279985123
C 4.643867578413703 0.9916922614706597 0.5458970427851392
O 5.162191335730929 0.08650560667489465 -0.06206074076799682
C 5.420902612297038 2.0861562679161607 1.1014098971158213
C 6.051345721942774 2.99656260541495 1.5587186062347436
H 0.6788067727888736 -0.9372420138000893 -0.21488546921917215
H 0.8992625661817647 0.7558431710315326 -0.7164075442376007
H 0.540359723235382 0.35675817773823115 0.9693451093976084
H 3.0167498953565515 -0.592141196890006 -0.32926853384566945
H 2.967823320615669 1.3763773521624998 1.7930017200619575
H 2.8426726909941853 1.9698084480027105 0.1468113943864477
H 6.621615152234988 3.804840689132792 1.9667217703632716