16

C 1.2729106004595117 0.1542008156534995 0.2845009503277281
N 2.710853408664471 0.17138256552413725 0.15180769965864618
C 3.18132104504734 0.6821603645004616 -1.1209204587890176
C 4.686676311053081 0.9081945538947825 -1.0241943614276996
O 4.970110876592303 1.7700707356418817 0.04290553951617114
C 5.395870947922154 -0.3743536576601291 -0.9165477448398691
C 5.955532710066616 -1.4268936659517362 -0.8216724935238272
H 0.9957560130433909 -0.26556561258906697 1.2456370994079093
H 0.7577122921737413 -0.4143818034801171 -0.5026208677819072
H 0.8871337216425786 1.178669914636855 0.24963345007198975
H 3.0863681201158726 -0.7632478535342554 0.29990229868331314
H 2.7052278967654977 1.6539591954932649 -1.296615899778856
H 2.945706575735715 0.025935759692235296 -1.9807945013305763
H 5.023656045792983 1.4154573235152692 -1.9383518348646362
H 4.366171121318955 1.4843194778797506 0.7473479266286791
H 6.46386134192138 -2.3537330387498385 -0.7282383403372903