13

C 0.9155782640110016 -0.24515142580343646 -0.12806908995559013
N 2.345454603626368 -0.07223897843943956 0.007237512642673942
C 3.0724505076527793 0.2625287221381612 -1.195015624557414
C 3.022721221920709 -0.20077381634686403 1.1549495944434731
O 4.219224215256923 -0.06105056568513528 1.2980089597437086
C 2.204445105034394 -0.5402603784741447 2.332238447642209
N 1.633270805651606 -0.7936317943936151 3.304658602441062
H 0.458790134276442 0.6774460086150239 -0.49699307803725723
H 0.47609461091456196 -0.49237207094722535 0.837285318375003
H 0.7004129890102146 -1.0517083514373124 -0.8282430211597076
H 2.7030823661436605 1.1970388626777702 -1.6200640895158207
H 2.940036856693569 -0.5311271185418623 -1.9510335568828139
H 4.127823721386932 0.35641735357562054 -0.958354078926364