15

C 1.2093506650188575 0.2154969562333369 -0.2932220022819646
N 2.6372378215547165 0.23779552223390116 -0.1600571253685536
C 3.3602878355885992 -0.9668521593188344 -0.4489772967189809
C 3.375169068038763 -1.301231640370642 -1.9266868477013928
O 3.384980545946179 -2.408939261431943 -2.3585336464162436
C 3.2311980087623478 1.2515821340452808 0.5409542523675646
N 2.708299072023811 2.2858501063562953 1.0602642571084295
H 0.9229119390070007 -0.5785325381396618 -0.981720789474174
H 0.8430991924248078 1.158300319749033 -0.6968131522112687
H 0.7041809441863051 0.027615562387711266 0.6617912620953748
H 2.985063966572978 -1.838401953992142 0.10704675149331908
H 4.414693706975679 -0.8298603076114249 -0.15224094960652854
H 3.3898704515499696 -0.4058934474429069 -2.5911017232570597
H 4.3114511867539305 1.1318024805104143 0.6322023226605185
H 1.6941213874905425 2.309059363989739 0.9408604057564689