17

C 0.9312984739933865 -0.26459712086651865 -0.17158143851561666
N 2.369275614786767 -0.2597055368871678 -0.09857069000714834
C 3.0317594522215 1.0259514173934887 -0.02922823729199544
C 3.2933531853439955 1.493285117790306 1.3966423584712742
O 4.24826149221874 0.7062445558732371 2.0616505452733103
C 3.0754018361127047 -1.4255535021845054 -0.25071036129507857
N 4.321980817596917 -1.6376365848018366 -0.22770218510606574
H 0.48700090362036 0.22114907075327142 0.7129424303015474
H 0.5685860474490697 -1.282406718279463 -0.2043498313472881
H 0.5643454584576882 0.26788662890050213 -1.059949221980475
H 2.4029429719503916 1.7601625077321728 -0.5390481885730428
H 3.977052645763375 0.9681428334405064 -0.5812823502198293
H 2.3566044817764675 1.5269635488782733 1.9575017607925433
H 3.707956829388905 2.5001775782766713 1.3664216532091755
H 3.9406940563790096 -0.20791522186031547 2.0855094120742392
H 2.412872713265896 -2.284440201412296 -0.4088436140338825
H 4.871340099941103 -0.7913738858846124 -0.050575823569086444