15

C 1.0076736623546851 -0.1721738440033203 -0.0009938954647272275
N 2.4371903251510565 0.016166713214242092 -0.13229976919880335
C 2.9105267476304895 1.298106800622273 0.33300707805802554
C 4.424917141556341 1.2242770728597774 0.5193867092389406
O 4.7642971054760785 0.13591471047839154 1.3257866962058413
C 5.075960851488624 1.1263860922377096 -0.8058191160862246
N 5.544805546182821 1.038559187113406 -1.8536214786195773
H 0.7287679283397084 -1.1546278905932283 -0.3918406065714215
H 0.40401393467352253 0.5853675742523871 -0.5237001477703018
H 0.725799805967749 -0.15164021190183333 1.0545960296949273
H 2.7115335655199733 -0.12793721377427703 -1.092460548456704
H 2.4710690463247507 1.4866344285145159 1.3160813854204105
H 2.644130077159841 2.1438171706332887 -0.3202375487241249
H 4.788761760426769 2.137477013582529 0.9961228400474939
H 4.134356062475405 -0.5625724789675242 1.077454331257943