16

C 0.9109738558446877 -0.6534550802153117 0.42759833840967537
N 2.2454284238056883 -0.0873228965787534 0.4587016812365971
C 2.9174614567248724 -0.1236044897943398 1.7274889963285525
C 2.7732828237329192 0.4253582901504253 -0.6716489234840041
O 2.1840200599376685 0.4498400042141779 -1.7410958819264934
C 4.181651846397852 1.0154788793283522 -0.6190258997959351
O 4.528863155189309 1.4872723271392094 -1.8768404123040519
H 0.2616220312025015 -0.1196607902833035 1.123420893330155
H 0.9329798100389151 -1.7071437081381602 0.715693751924575
H 0.5157122669921852 -0.5569384077793069 -0.5869133986436122
H 2.3473557596728116 0.4211845000842629 2.4781975194281904
H 3.913648002873763 0.31024213074432877 1.666011238982381
H 3.0277840125626447 -1.1572480132048404 2.0790315353539417
H 4.893496243769974 0.2439571973216491 -0.2892278804305469
H 4.2125980212101055 1.8336530650779659 0.1258850897083732
H 3.7464268593227037 1.3033186809889812 -2.422053446673954