14

C 1.0986365766814328 0.42897096908582 0.3820178504038484
N 2.3279696687477727 -0.021776183480898985 -0.2193473074030295
C 3.1015638213223156 0.9807019773329271 -0.9059924590567525
C 2.8028940793471837 -1.2874976465882437 -0.17816594151776458
O 3.832384044885452 -1.6578787154487142 -0.7140319432192029
C 2.081480686249472 -2.3806625732940163 0.6096501213520034
O 1.4996827446683954 -2.2496444533694597 1.6457692784853817
H 0.48089344163065434 0.9066876973835113 -0.3878776883357044
H 1.301817881105583 1.1661264763421517 1.165736880408163
H 0.551571460162542 -0.3947707189576784 0.8181480772424431
H 2.498756389119449 1.4441007050983683 -1.6932630033107026
H 3.9856492522707097 0.5168022429573861 -1.3437274956838443
H 3.4095716466969197 1.7694509261255482 -0.2094315242762958
H 2.2847000665242287 -3.3681327366772695 0.15537393141865308