16

C 0.787640577117793 -0.21590155326045096 -0.3024591272481611
N 2.0258232173664514 -0.9552060348593598 -0.28226562558943685
C 3.250295714706475 -0.27165639136611175 0.09666584951269011
C 4.130072114964425 0.07045150947575644 -1.0883893927250257
O 3.4815446515681163 0.9102624981066442 -2.016956360083039
C 2.0556756258047257 -2.2831578531721486 -0.5009056201279398
O 3.050842803572457 -2.973428462039658 -0.4455050246150399
H 0.5234152888971199 0.14293785756702757 0.6994102199874666
H -0.01231114029242895 -0.8658942591816093 -0.6498896391350145
H 0.8626026810788046 0.6464932348583892 -0.9712621768921851
H 3.8151585717967444 -0.9254329518899184 0.783863067461111
H 2.974660952446125 0.633785417186984 0.6339783073439459
H 4.486630871072226 -0.8513145254862224 -1.5580178792091859
H 5.005001601384827 0.6218853999038078 -0.7250738921461589
H 2.9422304916500766 0.3548454694515017 -2.5874431175147414
H 1.0570729825678065 -2.705842979994704 -0.7387265772636886