16

C 2.3460152850949427 -0.6517556936815119 -1.0459840323994227
N 3.2284080321053934 -0.16713875880123252 -0.0038777722397349097
C 3.460513114283266 1.254950998795308 -0.011756886503966734
C 2.4347283624223466 1.971289221434289 0.8566921390617024
O 2.414756726958847 1.4021585523538087 2.141068450772523
C 4.855171499014105 1.5543128759184028 0.47965513356878536
O 5.711506672870001 0.7239627936126384 0.6356563315020309
H 2.2588876658037917 -1.7382170091928326 -0.9705176944230842
H 2.697281243157037 -0.40473061256937215 -2.0689041793948477
H 1.3472751207435838 -0.2344711731114864 -0.9240856384762325
H 4.119875628236859 -0.6400170795276869 -0.0045449484701899625
H 3.42473901658046 1.6962414125847216 -1.0263320182052516
H 1.4465578765481277 1.9099126039619179 0.371036060552307
H 2.6792832091042293 3.026709069199263 0.9546461407665098
H 2.495175483914599 0.4487342140609236 1.9921453263615996
H 5.054209796477665 2.623457116423101 0.6967337440852319