14

C 0.9996895248306275 -0.18285913831848385 -0.09321326420968891
N 2.419395497176138 0.011445810726635168 0.04737013796325053
C 3.1508298229022773 -0.09213690880845829 -1.1788614307588645
C 4.613547830273635 -0.3233242883474375 -0.9351062266745911
O 5.07731574340073 -0.6375836032004735 0.13446849139912506
C 5.552911126196013 -0.1868953938048059 -2.121474465960371
O 5.194381711900164 0.12915120574754024 -3.2244430259245895
H 0.5243795083881099 -0.1354100771457922 0.8863382350728739
H 0.7306758630067288 -1.1488467168491352 -0.556357661118602
H 0.5716709301243298 0.6065296598186487 -0.7207025084090645
H 2.828024892019524 -0.5958166466838948 0.7488958232580146
H 3.042064944329847 0.8095869526616938 -1.8008839321293184
H 2.8383298469930534 -0.9253051645370375 -1.8319997088682454
H 6.608725042882611 -0.41318350228661194 -1.8713946348871064