18

C 0.9437492774510123 0.10919811500611244 0.34747919668537325
N 2.384980902217181 0.14665588090970505 0.2391412305803005
C 2.8722597561709824 1.3804434308898337 -0.33748511776481116
C 4.366932370867015 1.3069531600848596 -0.5530647639972437
O 4.628378974338468 0.26496068860777583 -1.455877325694846
C 4.945198533884304 2.605214939532908 -1.0792720349544926
O 6.3138865770849035 2.4649166964591647 -1.3914043152368776
H 0.6240275461531872 -0.8621318687866831 0.7340272333714979
H 0.41386696042370813 0.28861384144044183 -0.6041101295641419
H 0.609258541852178 0.870591174636956 1.060156288493463
H 2.7184012753574898 -0.6251259654229159 -0.3276192668767046
H 2.641193283787876 2.2049738467065376 0.3408228177579471
H 2.3982060797875806 1.6107930962585875 -1.3114091338752207
H 4.8399181814061345 1.0790885538921449 0.42407385693794547
H 5.535316509961334 0.403408441038681 -1.7807225865094825
H 4.77857207536693 3.428232461903888 -0.36088970592749514
H 4.451686235804261 2.8756466859971686 -2.0224910940649967
H 6.815608253966827 2.4157665640103434 -0.5706811167535389