16

C 0.8670613678092957 -0.7021267459374627 0.02471218955979104
N 2.269387091792395 -0.34150967114745645 -0.02259311881613877
C 2.7886276656849867 0.046567601999463006 1.2674754429742092
C 4.2327480768222 0.46881998329757646 1.1657371996688524
O 4.37216007361129 1.6363634402543434 0.33286967534563866
C 4.391233376557409 2.8175412383469003 0.9480272679096099
O 4.302210888597443 3.006243706149311 2.132147425144444
H 0.5057000715733475 -0.9364930292557914 -0.9811439496414014
H 0.21654227543514246 0.07797390619427783 0.44632385475743
H 0.7364671507837225 -1.6064320319878285 0.6369887521216745
H 2.4088123796669003 0.40166005189128257 -0.6843714395237742
H 2.7440365398400957 -0.8092983308902365 1.9468416405889928
H 2.210681978199901 0.8623617763882598 1.744710670789571
H 4.814358610291591 -0.3014690596625971 0.6642474345019235
H 4.654098767697419 0.6779702654286219 2.149696510831531
H 4.503755395055018 3.611556731938979 0.20162756161024556