15

C 1.5213094215848009 0.8750540216747004 -0.6215618113046555
N 1.7610164830551778 -0.19131862629786944 -1.5351757716055037
C 2.997180579311336 -0.5409559663808192 -1.942177670245592
C 2.99472421941008 -1.695441510985366 -2.9034132234934145
O 1.987000290145608 -2.23141546276889 -3.272370001177657
N 4.037026208436175 0.06532013039648266 -1.514263998193552
C 5.364123169947492 -0.31299648862359025 -1.9501185863351123
H 0.4548212390559763 0.9685729094081407 -0.44431557376077774
H 1.912336055516712 1.824557763810959 -1.0069554762272226
H 2.027293263174705 0.6955703222989942 0.34100455498695337
H 0.9992932272859698 -0.733583482805392 -1.9177046192318723
H 3.98420200935616 -2.0187312247727824 -3.272350087818175
H 6.083701012432929 0.3528361007878924 -1.4657187635491182
H 5.515074676897026 -0.19208782603968766 -3.0357287977771388
H 5.630043548440283 -1.332165053023584 -1.6791590876160893