17

C 0.7772579918191562 -0.10026061414975743 -0.06888119603850669
N 2.1860120405277916 -0.23577713792935306 0.21791835658518316
C 2.768250976335533 0.9717093663216054 0.7660596503971764
C 4.217149513652991 0.7438039935452959 1.1103819093767122
O 4.731344511399965 1.9627176592120301 1.6130070338595257
N 6.059696809581002 1.8256820527675526 1.9172983143260733
C 6.566142383139316 2.8858388817155993 2.3830318645908757
H 0.4167156503837596 -1.0287695939111203 -0.5312212688745752
H 0.5337034879855903 0.7393746337007454 -0.739207665775962
H 0.2182215780474728 0.042434083145669044 0.855368567797708
H 2.6857576119355357 -0.4954292575083603 -0.6162459946274176
H 2.2155067999430837 1.2393037561940534 1.6790468365675446
H 2.688356912258423 1.8481290855246153 0.08456122390906293
H 4.788880348178589 0.4443201195471339 0.22887853971839436
H 4.306961755615815 -0.037539446779788224 1.8645891394286374
H 7.607810176505388 2.8488696260896944 2.6508224185715705
H 5.980028476825254 3.8016238722562132 2.523063869162519