17

C 0.45559289430276506 -1.056506880363686 0.7827520921803405
N 1.65997454663599 -1.4125856529511767 0.07064692703991254
C 2.698973056317509 -0.7137839353407568 0.26183883633107763
N 3.88604844736882 -0.9383010751383294 -0.337816608678575
C 4.1026048605928125 -1.857200899577884 -1.444813076739733
C 3.8562353093694566 -3.3234261451081815 -1.1345330567447485
O 2.5155016168941846 -3.707322509045104 -1.2078340333638768
H 0.5879312297938861 -0.18188519560894995 1.4327581598831844
H 0.12133721350815485 -1.9009386598258415 1.3968566620590277
H -0.34643783570366526 -0.836465561076908 0.074651443593736
H 2.7097987170259112 0.13926725996885234 0.9550650374062278
H 4.601743552596135 -0.25833622097990694 -0.16675511481784056
H 5.137655212155074 -1.720077996615729 -1.7497056723976974
H 3.4650617222317974 -1.5678833423503478 -2.2951129108706754
H 4.294057453852246 -3.5518600453629063 -0.15058364891620293
H 4.3989492564771036 -3.919810777808975 -1.8789682204268692
H 2.0020211202880898 -2.99841313219002 -0.7644375176975675