15

C 0.7588303540403072 0.1933166131607417 -0.2470212140172448
N 2.164184601597013 0.25920888229964006 0.050623358669168596
C 2.7267341794953683 1.3876943727457964 -0.03439931059081755
N 4.076782431216901 1.5191498413442863 0.22970606451071393
C 4.751120678477306 2.7138306013647853 0.16843418850764544
C 6.21589066131733 2.639134393332861 0.48911419161896336
O 4.202522407809555 3.747738899401635 -0.1312767845868589
H 0.22127560108026925 -0.20348888142486898 0.6281850555946287
H 0.5852935153200617 -0.4987806451594521 -1.0680348741261634
H 0.30856989113899447 1.1683314576995174 -0.50531244470074
H 2.24144036105943 2.3331510016731736 -0.2988213129892895
H 4.5618461880730115 0.6709224986301187 0.47980143998476704
H 6.56489445925298 1.6267892089200273 0.7378909522608883
H 6.417630683683627 3.303898854175239 1.3260151472510158
H 6.777481094522619 3.0097468421530165 -0.3664469691199921