15

C 0.5065040561251405 1.7912535942998724 -0.3533100463793346
N 1.904190199333689 2.1039893091691644 -0.2193549407058281
C 2.7038134845380037 1.1347768631576964 -0.04833529435387059
N 4.0440120097400065 1.3096075754179457 0.11720927606368306
C 4.647755428886715 2.5977987607724704 -0.018489136255525448
C 6.131720248939723 2.4868518684366725 -0.06260781658837479
O 6.727469797958713 1.4431031938260348 -0.039560427429960215
H 0.1354935662938006 2.1755644397002882 -1.3089036323265488
H -0.06826083405558124 2.29456263371591 0.43392484624376826
H 0.29309787304562346 0.7131670926757926 -0.31088248116134665
H 2.392622234429401 0.0862976490792098 -0.017247405136462023
H 4.6698582790802945 0.5217269889313516 0.08718538407924929
H 4.3806843032138705 3.2668243838892423 0.8153156878015035
H 4.306357595514784 3.122569826448486 -0.9222299474370862
H 6.67203753337829 3.4566611048988625 -0.13181574354698855