15

C 1.020277265940977 -0.20618504199629162 -0.07889056759033851
N 2.3986179472874434 0.13642931576446615 0.18819369837048944
C 2.8210880847653055 0.2107549906286978 1.5075656033736857
N 2.137649311239556 0.008581201445234036 2.5513943593923543
C 3.2359650745245925 0.3681517606594024 -0.9015125154015555
C 4.675808202240538 0.7272565755510803 -0.6090313960342119
O 2.8299785724705733 0.2943701072253621 -2.0324944627664676
H 0.7836798779771934 -1.1934033085530749 0.33313135316814846
H 0.8693335254061733 -0.2220153765326846 -1.151460087418808
H 0.34573403034494127 0.5335967481664854 0.36672509107286855
H 3.873815295181341 0.4647627082660627 1.6228043448891862
H 1.164921376473221 -0.22943323301187976 2.346349894742131
H 5.185592284010849 -0.07278425548845589 -0.06742183357914659
H 4.753230135649035 1.639875291135209 -0.028243049902274477
H 5.161927164086395 0.8662298154902353 -1.5760712590863948