17

C 0.903654597870043 -0.2115139153211141 -0.1091447202438548
N 2.3223845500501423 -0.5060354361640446 -0.19406814606354308
C 3.034024269452153 -0.5347190994337788 1.0500119611600758
N 2.904146596971839 0.07023906090572404 -1.263564753433474
C 4.136764639587631 0.34841810254708144 -1.3056093618641942
C 4.6875154395912 0.9161644441224372 -2.585654405595593
O 3.6902598099391173 1.1159554669440002 -3.5425807588443403
H 0.7137500244016879 0.8041648561396052 0.2791821865403868
H 0.42338812472038445 -0.9347883988496299 0.5422871616934805
H 0.4728142451159455 -0.28799545827836054 -1.1035611965703616
H 2.408199586959697 -0.9930423146947972 1.8070371009425577
H 3.3305681531063023 0.46266600433663907 1.3911222184295997
H 3.9435700583732025 -1.1443381312974878 0.9503533237020827
H 4.8345985497553645 0.17888255986788265 -0.4891997883705365
H 5.469009895961116 0.2425485570743429 -2.9630659901638454
H 5.183925024261722 1.8800458059894922 -2.355536684653546
H 2.880403109252326 0.7750092379142761 -3.1505471866664454