15

C 0.966798830629621 0.18069197824156513 0.476738908724353
N 2.331811154174584 0.5839392977715242 0.2932688638224342
C 3.029703788523761 1.2865369792749426 1.3522988014651616
N 2.906515997859184 0.2792291041987751 -0.8379693298418132
C 4.135820078389969 0.6056061781673108 -1.0825774726011117
C 4.660338624871842 0.21098164023486204 -2.383325156763081
O 5.786586752753216 0.44405285371121866 -2.7493156852382117
H 0.8632847771996173 -0.5002690199484603 1.325156436077534
H 0.6454745739266795 -0.33099964383470226 -0.42407235928028986
H 0.31985414968200476 1.048617381803556 0.6455706389580397
H 2.3480599841608263 1.4136315522209066 2.1873819608789913
H 3.3604934955583032 2.267815078721832 1.0078132375521078
H 3.9032000049282063 0.7195787524810314 1.686179755253705
H 4.7889536225097205 1.1302825854287726 -0.39709396718729884
H 3.929529380345044 -0.31876166944030493 -3.0226427224710877