17

C 1.1602792787521805 0.1437277102707546 0.5687786565986743
N 2.4926569165247954 -0.248129453417444 0.17709761509476565
C 2.858920028076501 -1.5513996476949223 0.6895230115100851
N 2.6504255220556963 -0.19277881050403034 -1.1970098684606933
C 3.525369115319478 0.6422930939720867 -1.8378780895773703
C 4.352903884858664 1.5309555038647569 -0.9545663409742469
O 3.599513532691417 0.6306276921028459 -3.047038293430736
H 1.0929510088342542 0.1658803663001782 1.658614925957519
H 0.38619816219863434 -0.5360255877825713 0.1840906157457117
H 0.9508831310394001 1.1463170638896316 0.19646664156578508
H 2.797700670497696 -1.5345602005511383 1.7817375322418216
H 3.8904145042291027 -1.7837123581247265 0.408597361326514
H 2.202429492640467 -2.3547234314571592 0.3199354115272758
H 2.086922809679838 -0.7914267425025399 -1.7973106004670307
H 3.725355752429206 2.180412678835773 -0.35029859319600704
H 4.988343873632918 2.138869565687421 -1.602289161717562
H 4.9684236474011465 0.9472844415352019 -0.267149172665435