17

C 0.9026885503425855 -1.2926769698131646 0.1255943723868537
N 2.304940205803554 -1.0099578654595929 0.23208158498413997
C 2.8123790846413605 -0.22857590883037793 1.229876337808168
N 2.140656305629094 0.44051256563873764 2.096990413881716
C 4.320618469682312 -0.1491030402202159 1.2569996466345283
C 5.028840561227767 -1.4665489835630858 1.4341977508824242
O 4.91383383178645 -2.223209400575824 0.22448494810159889
H 0.7372860486603471 -1.9649577725769243 -0.7197143129364617
H 0.3309183828376033 -0.37671340756906485 -0.05739295059159892
H 0.4939318384893832 -1.7758977131665055 1.0320952527145952
H 2.958495699281454 -1.6374111366908837 -0.2151555681332469
H 1.1384198974351836 0.30831244093458693 1.973261225923971
H 4.574394074829612 0.5096054338183371 2.0873391885155033
H 4.674948066991399 0.32177174655801344 0.3341255099191795
H 4.595637934908239 -2.016555605557019 2.2724154707281405
H 6.082227782759495 -1.283551071200581 1.6558725013511508
H 5.289185412496004 -3.0956740838579293 0.36994650030921955