17

C 0.9653617113613068 1.0391180380166676 -0.2932673437825407
N 2.265606555896793 0.4270796678091075 -0.18814999197499724
C 3.17418231012924 0.45363783142134756 -1.1914135388782694
N 3.067405065501094 1.0746964759211897 -2.3066527253761318
C 4.470617140782529 -0.30492811006625115 -0.9470193946547212
C 5.262464700685242 0.2789099406185172 0.20491093080179432
O 5.233711017022518 -0.3025397323457789 -2.1206837285809983
H 0.4193274139358237 0.8676083769358542 0.628330388213054
H 0.37970558940406596 0.6309905018812104 -1.1290749298891356
H 1.0605711597809946 2.124087916485905 -0.43138009383742215
H 2.4280174811415525 -0.20833551125691127 0.5668713237165144
H 2.188720496872364 1.5695724299970244 -2.432380076311148
H 4.186781031273062 -1.3498597978398175 -0.6986129423445486
H 4.725458947998365 0.23047655762886532 1.1523216873284758
H 6.2004905024634915 -0.26769925520341303 0.30713294477552516
H 5.500264249391273 1.323624332873181 -0.008669522577071915
H 4.7313749712803705 0.2648799991809291 -2.73461695869674