13

C 1.0925625864232165 0.033355712657250965 -0.05815433528559238
N 2.536864451379864 0.002705948220045918 -0.09522859583966514
C 3.143106818856861 -0.6412024312839658 0.8249089170607882
N 2.510364539334927 -1.2323181578893503 1.9097112981421338
O 3.210135593116348 -2.2831660129908715 2.5143450462326498
C 4.5738619432521945 -0.6835880318044001 0.8328605391428754
C 5.778839531708275 -0.7012615298025691 0.8235566121958706
H 0.7245812972105184 0.5660423424449502 -0.9389305578199858
H 0.7237274709228596 0.5568057161379371 0.8300631431910461
H 0.6423008264621627 -0.9652560377285039 -0.0635298763927551
H 1.5740274248709767 -1.5502665563267484 1.7133578808783843
H 3.479047406187094 -1.9333127059031059 3.3700052477965095
H 6.840108036092256 -0.7112242454747932 0.8053289104634188