16

C 1.243106725138587 0.07181227712156577 -0.36316309241811934
N 2.676596071558442 0.17123207449401476 -0.2363485753187306
C 3.2498904112608815 0.676454223924931 0.8866199476025007
O 2.584326048979286 1.0625365799357058 1.829092424345396
C 4.743477973211652 0.7142876875063764 0.8800268113170184
C 5.391188903907616 1.8576244580844035 1.608189525716926
C 5.432183225533074 0.4953467060083699 2.197596491487194
H 1.0085209779934852 -0.35200940354992083 -1.3343588632853065
H 0.77509878591001 1.04941044791356 -0.27162621204382087
H 0.824752922132536 -0.571792013903271 0.4241420114413685
H 3.2703536551089956 -0.14600737924099835 -0.9837665382487244
H 5.237128979098626 0.3431906902467391 -0.008833512443206445
H 4.720844636008017 2.5749472490877787 2.054025142118747
H 6.301355739530911 2.265649553116399 1.176241009003882
H 4.7828753390373295 0.3122924919748468 3.0435701293089292
H 6.361837180809572 -0.05114047365720483 2.178897076141225