16

C 3.3706809992766176 -1.0726041597374778 0.7319422332760461
N 2.5324108070990192 -0.13056195824755398 0.012926247424786753
C 1.1902705079103335 -0.37406404076552136 -0.024576743179320175
O 0.649489305899768 -1.3154881074973876 0.4998423177574902
C 3.1258738382144853 0.9735544977088731 -0.6074907498348714
C 2.2347586296077506 1.9207558798321325 -1.3497493424618798
C 4.449716565980326 1.1807441224680606 -0.558360265056001
H 2.712994471919253 -1.8440805082570626 1.137711101703392
H 3.8871276624246645 -0.5656237898255887 1.5510504035657502
H 4.106727779130844 -1.5280639502653284 0.06047319208669008
H 0.6233040935583224 0.375038608030223 -0.592325472529902
H 1.4916733893113272 2.3835101592012986 -0.696542700501989
H 1.702781724186523 1.4401465835699754 -2.168405868319485
H 2.845199814879813 2.716105032324971 -1.7732784135442656
H 5.130231294295841 0.5243798887731894 -0.03716466374283465
H 4.866703170130901 2.036879815336411 -1.0532506375832902