16

C 1.732749365261129 -2.2938366646870487 -1.755210136818293
N 3.1363924596323103 -2.2114183826817744 -1.4459494994283542
C 3.7478887674285892 -1.0502509598326142 -1.1190995480843284
O 3.167708525141976 0.014047794586982998 -1.03260096742852
C 5.2312391174861625 -1.1502658452215633 -0.8513319134797653
C 5.732612148769863 -0.20370821872994338 0.19307889040904405
C 6.007786681237426 -1.952086547300793 -1.5604515345275551
H 1.5661222844015363 -2.6793890654052426 -2.760283658761684
H 1.331594236689124 -1.2798948956541003 -1.6911939865677363
H 1.2027743603873529 -2.926432863888255 -1.0356637998503526
H 3.6735155162544864 -3.0603607887381186 -1.391258081729779
H 5.285308064485219 -0.42269143539620285 1.1640545673037987
H 5.443493267759086 0.8137486180414227 -0.05418515051934245
H 6.8141018387292425 -0.26317933148171335 0.28233893184410697
H 5.625609111833762 -2.5856342684527327 -2.352496233337534
H 7.086489106938173 -1.9860484900150255 -1.388299018604114