14

C 2.863624695177968 -0.5098600371032433 1.2029640688652528
N 2.331352014000555 -0.07307151818861636 -0.054245822443199566
C 3.01777618137142 0.33461595062519195 -1.1501920851308047
O 2.459876915061843 0.6896467579701712 -2.1711170770344994
C 4.463687841029531 0.3394679033805243 -1.036900945349993
C 5.663320710394152 0.36893447813535085 -1.0338394082833782
C 7.109828634747226 0.42000763900169386 -1.0640287522863137
H 2.5300331101909794 0.1226611394827418 2.024305886134969
H 3.956108425408073 -0.4591695284857139 1.1649179199428006
H 2.5864997273857915 -1.5433676461051238 1.421155192054446
H 1.3265337699996456 -0.06129664193956062 -0.17880889887943796
H 7.540168579090147 -0.08603587110246746 -0.1964634588611252
H 7.459889281841761 1.4581453132197157 -1.0590878969608561
H 7.498614800520173 -0.05794836741299108 -1.960136294792322