14

C 1.2234082505231774 -0.502548842231219 -0.02844721885119439
N 2.5335978749174206 0.03770857883382346 0.23071855966222762
C 3.1694999917701607 0.8632763317737369 -0.6295110732674718
O 2.7106863988710965 1.2363378919396308 -1.6868109223493222
C 4.553666012354034 1.335942489149249 -0.19281831462390536
C 5.038890332319132 0.8580620890657363 1.0890608003367348
C 5.424198783179463 0.4426218017766914 2.1491406349944144
H 1.2460376603784606 -1.592386999288663 -0.07561438404985286
H 0.8960233885568921 -0.11538240279451699 -0.996185090637706
H 0.5143313030385891 -0.19723221325149423 0.7338252264945945
H 3.0181674928146913 -0.20633400599160628 1.080944490245966
H 4.514329135635077 2.4289154978603213 -0.20232733086178278
H 5.245305659675521 1.05203919530833 -0.9968656604769398
H 5.77447947381424 0.08160969783786216 3.0849940654434804