17

C 0.9460937084751496 -1.2749023340232688 0.6020088978723718
N 2.331892270047926 -0.998950689085167 0.3249196248995338
C 3.281110326804063 -1.9599234197589779 0.34358936924018746
O 3.031046417703245 -3.139521125133346 0.5640157262591026
C 4.696292417257063 -1.4723378957370854 0.11738806028995778
C 5.535673761626622 -2.4823891079940466 -0.632629222859466
N 6.924761871674952 -2.054284861944626 -0.6811231743049535
H 0.3051766062551371 -0.9619258161522863 -0.2357031445273597
H 0.6116988817612306 -0.756738541671883 1.509455467242918
H 0.8426056672622261 -2.341411309587601 0.7460398862866762
H 2.6177054885741247 -0.05027495652118156 0.14909914937694976
H 5.155500926659117 -1.291934408522138 1.095609726933077
H 4.688754159621981 -0.5145964870668537 -0.4140171268536817
H 5.092626160438218 -2.666721758194215 -1.6215121508998143
H 5.482876854805596 -3.430893782979549 -0.094567423783265
H 7.027133527907963 -1.2445219970601518 -1.2851262854012682
H 7.511814893999448 -2.781189438830785 -1.0628097294198733