13

C 1.620244676254959 -0.1627976209251346 -0.7723501506706428
N 2.8202855362266157 0.24036431808304834 -0.07895027190934328
C 3.2005996185745835 -0.31191512631500456 1.0820996852538252
O 2.589880008939239 -1.1833186720696627 1.6692785795898417
C 4.4932383024077005 0.22170391014684637 1.7048934438329664
C 5.172440560826139 1.2578731787461823 0.9503459377339952
N 5.66266540875882 2.077330927536272 0.31528276767447894
H 1.8618204203839779 -0.5482832888458257 -1.7680244366559221
H 0.9371243688735424 0.6853125028233391 -0.879519955830683
H 1.1460658714635608 -0.939881260855246 -0.18859868216417427
H 3.3981423757580123 0.9565298989725194 -0.4828651367514142
H 5.168550805907497 -0.640231127381817 1.8312881754633876
H 4.251479065230276 0.5861387697531222 2.7062551969106243