15

C 0.1983924317118716 -1.016347328474347 0.5295482411979596
N 1.5556290461946953 -1.4280166061588673 0.8031671579734584
C 1.8246416020239853 -2.2003897773927283 1.889947225157499
O 0.9985833318684492 -2.803623863910069 2.535035472325702
N 2.5410598559641917 -0.5273642169167237 0.33898934230036737
C 3.763926919125839 -1.1868902142658677 -0.11103465612077464
C 2.8077147338727353 -0.6815526071826442 -1.0941901497168471
H -0.46244036939681366 -1.6986474904067304 1.0485387334780303
H 0.00023580093153914572 -1.0439925481091648 -0.5430701721180717
H 0.03112826134020362 0.008525530281274639 0.8877466646858431
H 2.9038725834766668 -2.234552838350385 2.108985371835195
H 3.8274237954034236 -2.2628235649589907 -0.0008859497346233552
H 4.6726097499193076 -0.6433041461263472 0.11929680827887583
H 2.2131189732679832 -1.4267130712336933 -1.6257631807441852
H 2.980008310101269 0.24604333987936122 -1.6152800995826087