17

C 1.0627312921267267 1.987283537206661 1.288775267093566
N 2.4992795107640156 1.9951298408779945 1.349161931327631
C 3.2110453948089215 1.0385923966944814 0.6672327714919665
O 2.6230230159546095 0.18367550571282457 0.029768619336442367
N 4.5835312235191665 1.0833630482285628 0.7544418812519298
C 5.337248025085659 0.08244050993236791 0.04750646959400979
C 5.368895951617593 2.0485014609791623 1.4790011088369541
H 0.6846936958343058 2.8108075342847707 1.886166033142044
H 0.6534052144480904 1.0482701185727763 1.6928165656629575
H 0.7070018069091063 2.090483177884901 0.26591992926562297
H 2.958277097753743 2.708564935804675 1.8813962939742723
H 4.653116861378456 -0.5803172435358925 -0.46611221860296237
H 5.956500036403252 -0.49509424065766106 0.7424964982605673
H 6.00072903109381 0.5504897141728062 -0.6884655281637367
H 4.7577985861142915 2.783548168301261 1.9917301524586606
H 6.03936374993187 2.592364288377589 0.7985523812905879
H 5.989495352633437 1.5459463416751824 2.226365305590147