13

C 2.2709509757911195 -0.8174427515665447 0.6917305109192652
N 2.6697241127106137 -0.0019817188201982122 -0.19948790454004262
N 3.0388595801024008 -0.4998444544872361 -1.394130609562843
C 3.5291775884199255 0.2535354409651656 -2.543111564564257
C 3.660928129320172 -1.0991339542047769 -3.272464606885419
C 3.1383980775601508 -1.7417164001588097 -1.983039467308901
O 2.8931560494609925 -2.8500208739429174 -1.589340497404162
H 1.9676916891530956 -0.3818700789818482 1.6384985114760762
H 2.2166030482004437 -1.8957564988184183 0.5473527729008929
H 4.4700951396339415 0.7775417656359291 -2.3578804223028027
H 2.7862747820357456 0.9405183814585683 -2.9615680215974893
H 4.674585349376883 -1.401575288157816 -3.5318445435358807
H 3.0044039400945537 -1.2449287915366485 -4.126113666828804