15

C 2.8510230211276597 0.47469316719458177 -0.7204648285886707
N 2.5841358411034268 0.3271355728737012 0.7023307298883712
N 3.077953180515513 -0.8525657202840151 1.2205102674820478
C 4.130563643309307 -1.082956372694314 2.195669158556256
C 3.749621548652231 -2.5713677392060044 2.1332562822952377
C 2.6479916859778907 -2.1546541637202443 1.1480991629696977
O 1.7455400572996875 -2.674534253524998 0.5662498834932725
H 2.384361399004834 1.4084375880883522 -1.0583336176796585
H 2.4580416790882866 -0.3541435634901846 -1.3234042659580516
H 3.9204611916358867 0.5506010832938334 -0.8869269745754442
H 1.591985680077307 0.37078755852390644 0.8852069714688493
H 3.940513637248667 -0.6010457050993933 3.1574783434012805
H 5.130555407414317 -0.8334681750866946 1.8438372849895168
H 3.365812801494468 -2.9984170703443613 3.0602631712154746
H 4.497015095165442 -3.23853075943057 1.709198598086874