15

C 2.895152727199263 1.6043943293594607 1.9081031471098522
N 3.776288861424553 0.7658193663346934 1.5708456354380795
N 3.6910916203535016 -0.5019149491180577 2.015799831743568
C 4.358736624550952 -1.5026554241722112 1.2157891934409286
C 4.636911824536853 -2.7145282432139397 2.0422418430640232
C 3.7338360467206417 -3.8682108043725063 2.051776312309149
O 4.949758169733657 -3.8961824695006313 1.3287145181274136
H 3.0148615297868986 2.6332183496793675 1.5838944362117722
H 2.02613618134297 1.344182691400086 2.520376148458091
H 2.7692834789439345 -0.7798963622266607 2.3530014220597137
H 5.2971178914838655 -1.0473146231732784 0.8845780513419557
H 3.7977907699311624 -1.7939642722427542 0.32226904406939744
H 5.254806427122893 -2.553797026986258 2.92948513099812
H 2.8308524642092996 -3.8296311160298906 1.4401348134853373
H 3.691186241757698 -4.519104688258502 2.9171147324381423