15

C 0.8656100952265893 -0.3968689181792673 0.20079631427788858
N 2.305174350242456 -0.39135829351653045 0.1176449585390969
N 2.9871134886445443 0.616329465840809 -0.46283253617336606
C 2.358240897809193 1.6126643252848532 -0.9486498319304143
C 3.0412469732652587 -1.4439825909996615 0.6339019347764749
C 4.534401420860163 -1.350611134499247 0.4926497971431077
O 2.4808797260152047 -2.3838909850091943 1.163042559954201
H 0.5105776283328629 0.46754277432816727 0.7757975206972073
H 0.580613694428889 -1.3164651042464062 0.7167286770045481
H 0.4154682903883192 -0.37291509492395924 -0.7914395941335809
H 2.971409372835651 2.3829040795503795 -1.404534927178732
H 1.2831145274929112 1.7254613468710545 -0.9559781928349241
H 4.915597272740252 -0.4587319845215477 0.9853095992911055
H 4.827512051101209 -1.2813617147171636 -0.5501993856518201
H 4.961636551976999 -2.248607084229935 0.9435335626476149