17

C 5.951042587599344 -0.9680837203843511 -0.376874418258937
N 6.00125434561166 0.15821796846055938 0.5297017661908668
N 4.8058660041549475 0.73828309142351 0.7672285596959063
C 4.609512017674487 1.3579152235954555 1.860340617289712
C 3.3360072120494078 2.0923675016594756 2.1372459573012272
C 2.411915508288672 2.1935855963234685 0.945878498057267
O 1.9753602934529557 0.9454902781389662 0.4647375002530104
H 6.966279743687955 -1.2988340442565556 -0.5828017805953759
H 5.4977294311887785 -0.6453905294618658 -1.3128177084577006
H 5.3739540999476345 -1.8168368785355493 0.013212978390870543
H 6.543952730514606 -0.029164656699075964 1.3788329789461775
H 5.387269538006083 1.3681902212163732 2.6424462000752014
H 3.5860251062544535 3.0970668735053435 2.4996825063055486
H 2.8133508348282494 1.586181672587281 2.9637049366065837
H 2.9183033623488783 2.7639507842104987 0.1457680811062623
H 1.515091119609556 2.756607551273417 1.2315256212455612
H 2.775938482508735 0.4930973189386131 0.1957153960846301