15

C 3.2709840102141943 0.3631249497981514 1.7802381303810706
N 4.317978144308445 0.2382098434556818 0.7939283097412548
N 4.036263722699733 0.40297039457262557 -0.4655541196154921
C 4.970690842772862 0.28185188737113714 -1.357312954833361
C 6.390692717641389 -0.03271484090825104 -1.072107727517825
C 4.509285948215392 0.4909504828514972 -2.7230022347829412
O 5.2220985370228705 0.42603776721647824 -3.7027738591455948
H 3.7005101041743678 0.19086312598958247 2.7616068111337104
H 2.4777779951995496 -0.3655774739949556 1.6081603794223023
H 2.8333916001615864 1.3704379367245163 1.752720361357395
H 5.261007898617651 0.02294362574304619 1.0882718322474825
H 6.4975939415022745 -1.004696430406451 -0.5670074361114168
H 6.8583213642809815 0.7247750734810471 -0.42231776015920236
H 6.942685001884997 -0.06769061244311307 -2.0078116126211847
H 3.4320669850635155 0.7234909142795093 -2.806266057267075