15

C 1.6292745524353318 0.4859292157620975 0.3660424040564435
N 2.9053976427648442 0.056238632216673995 -0.11875885074887524
N 3.404046211713147 -1.0834383658019275 0.2876739938191603
C 4.551213432427505 -1.4812053330736643 -0.13078139812993161
C 5.111867987846353 -2.7527073477505817 0.31295199434240084
C 4.31809555955635 -3.5822815808966664 1.292507389113806
O 6.195971863039866 -3.109438644751903 -0.0975399517308606
H 1.390935039277029 1.4547350339419984 -0.08772053261761457
H 1.6305545033592115 0.6086870936792385 1.4593627282514317
H 0.8412698611438898 -0.21821058497955173 0.09630420516602503
H 3.4271763059837856 0.62490948354239 -0.7706386804686236
H 5.147012266554705 -0.9012378803014323 -0.8471685658464776
H 4.123865102535852 -3.023307025895018 2.203138024231879
H 4.876788549708141 -4.483019378053104 1.51486854752044
H 3.349688580996009 -3.8377376653122406 0.8705560745928447