15

C 3.167295587526965 1.313224598203745 0.36077253186645697
N 4.280083246637949 0.6570797935264119 -0.2783049127687371
N 3.9717290624176407 -0.5293941697036152 -0.8511817304823622
C 4.884645684196021 -1.4008352021144819 -1.010397168513898
C 4.584454928499422 -2.677494687330003 -1.7071899100581789
C 4.9846675877154745 -3.9101856167233455 -0.9593628154544561
O 5.531909552572762 -3.9249378930560375 0.10730650484632887
H 3.4846928580209022 2.3165514468958093 0.6613505698667292
H 2.7855538006690166 0.7874724031078073 1.2458002360970208
H 2.355479381546361 1.4124100001019553 -0.3577575453745921
H 5.130832830388847 0.6437912208720474 0.28202528796261006
H 5.8994422780939 -1.2409992690675542 -0.6390793474795926
H 5.093622043071081 -2.7334225806096732 -2.679676490914
H 3.508898974998649 -2.7303080626064586 -1.9319255862924505
H 4.7333834237129775 -4.863933730187436 -1.477194554654796