11

C 1.3403692338370516 -0.6482205252133768 0.8358453524010533
N 2.5349066676077836 -0.3068275953650813 0.6151035208416382
N 3.177383234004673 -0.8534865709722018 -0.42162611193876737
C 4.46751125847635 -0.5518188374127201 -0.7503029561535265
O 5.01685471070818 -1.0728644484152146 -1.7008143156679294
C 5.128009684055423 0.4118755664922987 0.0959901079643682
C 5.768608080578108 1.1988948400160744 0.742779231813558
H 0.8277720009164871 -0.2035000539452543 1.676327736196527
H 0.8033294308609461 -1.3736391857537213 0.22002671117686162
H 2.712940436442435 -1.5324146098949698 -1.0254890983450835
H 6.323711698491425 1.8982592873607458 1.3232801699242096