13

C 0.9163040330194676 0.12417175926254308 0.10954708188748384
N 2.3261168972895176 -0.06652116038904138 -0.09377588430305667
N 3.016757604563524 1.0644493779065594 -0.5603593045549934
C 3.0688531548626306 -1.1281867927252482 0.30453508251394357
O 4.28419106747673 -1.1587886737809856 0.19829799558759081
C 2.338824662375426 -2.2400982526937137 0.8835304514635424
C 1.814970795500427 -3.2127323853236947 1.3550154781455137
H 0.43192952449137817 0.35544913628037933 -0.8385258405292416
H 0.7373703437849577 0.9457158847260743 0.8084149209221162
H 0.4911643968747285 -0.8015601219297412 0.5089836120572732
H 3.122558839884814 0.9774016160175754 -1.5647497948579199
H 3.9522806281201746 0.9939844945970543 -0.17600927451095838
H 1.3623438296334158 -4.074100665927109 1.7870115924777035