16

C 2.7592330412112314 0.9549865210080183 0.03230357949769262
N 3.4567010726568475 -0.09578473138819982 0.012366096532854292
O 3.846184647959999 -0.4829687439494695 1.2648399339024945
C 4.643109357571337 -1.663445810440348 1.169806965507342
C 4.966479954084551 -2.1200710792368964 2.556015028920448
C 6.226626413600555 -2.887751583381991 2.7872105499418733
C 6.1048841315870215 -1.482656598082643 3.2971743067798203
H 2.4052095627001977 1.3270649090075692 -0.9245069108185516
H 2.4981522849833895 1.4690900009870012 0.9616885788497153
H 5.568218486052145 -1.440623824868375 0.6204673795744463
H 4.090540126928019 -2.4292952465765407 0.6133797960940764
H 4.101771067990874 -2.4155708989195595 3.1466241036325155
H 6.881665003331732 -3.0541454454206596 1.9343710850737623
H 6.207286395634597 -3.701136906668309 3.496161721794852
H 6.656021654311912 -0.7038532441469401 2.7938745280408632
H 5.996811444529362 -1.3404729410307363 4.367863570349661