15

C 1.9822827291870297 -0.7645761988780786 -0.1361809855207464
N 3.163589724233035 -0.3536835875996871 -0.2715508003004753
O 3.244124466855856 0.6751838991993884 -1.1751447355601519
C 4.586333610271249 1.1356866765693399 -1.2607881147240196
C 4.680376759580078 2.1038231167864643 -2.399005911186952
C 4.412305230012954 3.5287356565663486 -2.163675957605214
N 5.771841919279145 3.0637161634527774 -2.4178272363928093
H 1.8273177847232027 -1.5870544847771606 0.5580124749634051
H 1.1388595781824467 -0.3462125756170059 -0.68608012061848
H 5.254829498350068 0.27609845906224395 -1.414924373256237
H 4.877411300880394 1.627640947288288 -0.32566879842056373
H 4.445471331915468 1.6808507113319668 -3.3754401469632866
H 4.137876883999472 3.8277897951255513 -1.1481079619597327
H 3.977898771934458 4.140577349381664 -2.954348355622786
H 6.295246697918325 3.024908033295349 -1.5406200585399743