14

C 1.4656430410276138 -0.7350233168803335 2.3573408688382678
N 2.6964330198452755 -0.7980624334766617 2.0699580719360187
O 2.9071750027430983 -1.1268884419924874 0.7516922803365375
C 4.296230856896301 -1.1922252757256453 0.4828440886917987
C 4.945443876078414 -2.4422903808324117 1.0734244013947951
C 4.4434387586690205 -3.711544347490505 0.4574417292746842
O 5.147487451156857 -4.613687679404643 0.10234541898675105
H 1.2217238582806305 -0.47513510317813074 3.3771779354705878
H 0.6783456737083323 -0.9230602696698116 1.6205934925108194
H 4.790714469215378 -0.3011032238745203 0.8818396803137425
H 4.3770637424447685 -1.1824166700771488 -0.6010006006789005
H 4.717534628696117 -2.4629160232624967 2.146871217531827
H 6.028932895721714 -2.403042608980012 0.9610297181025007
H 3.3432294569026073 -3.7802357236787856 0.33942958736579015