15

C 2.3350790877486403 0.04547767781696365 1.6626928696777385
N 2.146780059328593 0.16401310785756773 0.23186364312021526
O 1.481442530426675 -0.9775310371583295 -0.21996885105968847
C 3.284430637938426 0.4440136951702573 -0.5536113903437374
N 3.613815974530065 -0.17138467528522316 -1.6071437109056095
C 4.034344670807618 1.6334395277962184 -0.10659592237275828
C 5.304347362060094 1.8532729992804111 -0.45088526360987435
H 2.8467407673032774 -0.8811539242282743 1.9243939770959075
H 1.3530715389684402 0.05689718380393628 2.150968237354171
H 2.9148591875130756 0.8922763337426007 2.0322945168766835
H 0.6728662025405224 -0.6335714398993839 -0.6220380612530448
H 3.002921220581739 -0.9851301706493866 -1.7407040284054212
H 3.5147367281308983 2.356388779299562 0.5195982083904753
H 5.821178678535142 1.1293268193852277 -1.076108206280893
H 5.8299010689820525 2.7366149494304834 -0.13111950943264472