10

C 0.9668998126652556 0.6184316671339519 0.008337582075551143
N 2.182030511652355 0.28876603492179537 0.08484555876873584
O 2.9270098034044776 1.3601409182380855 0.5780802957918778
C 4.250327874440881 1.077261920287167 0.6924240270962598
O 4.7842196668976005 0.05174817825310142 0.41494448934591555
C 4.931800062872266 2.2489034742949268 1.2028057443316844
C 5.544909137576449 3.1780944531119566 1.6244261662081019
H 0.2907515783811089 -0.14222767066150516 -0.3647141307106494
H 0.5926959945914663 1.5984582364590905 0.288881926998541
H 6.102216039893935 4.01345210012675 2.00108051732399