14

C 1.0704638548889178 0.5883134479124186 -0.2655033867093469
N 2.4773427363990774 0.28602575503967553 -0.13454185829736104
O 2.8001648355784 -1.0171303561208995 -0.4848711383193042
C 3.2752972734576584 0.952681968999862 0.7573507815500917
O 2.907826332678201 1.990651762513974 1.2686498576439098
C 4.625711457971572 0.36058189221331755 1.0088638515699042
C 5.474923805997781 0.9912403575460859 1.7984613865223291
H 0.7776296619196174 0.5708174562317173 -1.3170018082771893
H 0.9156985243715353 1.5847697589850651 0.141627154772177
H 0.4700909184801693 -0.1343304344327629 0.29041525388647854
H 3.066405848367664 -0.9695651213804015 -1.4106594439427071
H 4.872156597718307 -0.5789556851106792 0.5402557925182937
H 5.18351117225807 1.92752716143771 2.263886786704912
H 6.458446065163456 0.590790010809531 2.012202068982776