12

C 0.8242775318275097 -0.16230647322898928 -0.00831062199577487
N 2.239829438954453 -0.08703156867656668 0.07929203178515137
O 2.8926127719424217 -0.3180854424546248 -1.107522412550362
C 3.053011750758383 0.16493580958927812 1.1253147440242233
O 4.273531023548397 0.17548809960662085 0.9621357438202516
C 2.4146152688219797 0.40647380309468634 2.393806622293722
C 1.9553487441837099 0.6247462665311212 3.4748938979868464
H 0.4530307388452184 0.5789109446181647 -0.7152248218844545
H 0.4122672491312812 0.030320762175346523 0.983572218056586
H 0.5191346301385996 -1.153676381778105 -0.34554067138746447
H 3.832137728381491 -0.22423654346151964 -0.8230372625195607
H 1.553095065643368 0.8158822466787876 4.442717239304143