18

C 1.3131205575311917 0.518045932599902 0.31591945977677116
O 1.5139206026790828 -0.6213177415421107 -0.47455387161739965
C 2.625830565569167 -0.5009013417895066 -1.295968438259835
C 2.611733107580048 -1.2824832957081278 -2.5603829714304993
C 2.5090445415365012 0.22359625416958462 -2.593618325384815
C 3.638484460255346 1.0473206343601846 -3.1310492682551128
N 3.552218593424729 1.1434710072870942 -4.581886648909608
H 0.42906412239331926 0.34167899298148435 0.9291577839640419
H 1.1440177869888395 1.4161393699490419 -0.3005867767046266
H 2.1686645434687133 0.71795902405895 0.9802304308688162
H 3.5695875862565 -0.4141050582123997 -0.7588457229322474
H 1.7103806544511162 -1.8537742210922206 -2.7598309510391665
H 3.5332270191356523 -1.7415351579263667 -2.8777871017174164
H 1.5185844195543592 0.6111197422031955 -2.8141981479936202
H 4.5862167635853694 0.6079583503668361 -2.774172183469806
H 3.586246382423353 2.0570231865381383 -2.7247980308443127
H 3.577785935184322 0.21686346990068675 -4.994927188098025
H 4.34118753318754 1.6576882722480997 -4.961010213455498