18

C 1.8206230175198483 -0.06780615748554054 1.074228017031293
O 3.093200556842328 0.19956792996237602 0.5263945797852385
C 3.0942854300958005 1.0479587990035986 -0.5869441017923503
C 2.371555115555469 0.47861831100863356 -1.7835438718748582
C 2.769119312826341 2.5466047754831354 -0.3127326594721775
N 3.9707284980555304 2.9045079218162324 -1.0862325789810985
C 4.51767237527141 1.5451363844618469 -0.9080912349850071
H 1.9740622072403167 -0.6051293748799698 2.0008379465433035
H 1.2014917397309615 -0.6787095047340554 0.40552269987780604
H 1.2834406005813122 0.8667734428067061 1.2995591757629028
H 1.3054236592722133 0.38392421733825793 -1.6051704649051846
H 2.777069466316721 -0.5028996476644526 -2.0332772087279127
H 2.514343326945271 1.1474047707232695 -2.635670861303147
H 2.8442857579173464 2.7581978706634143 0.7582934303240099
H 1.8363841821068396 2.940780571848834 -0.705040626867967
H 4.527620215701925 3.6471361842656527 -0.7024025321162669
H 5.164477573626292 1.4248714551554014 -0.028280397887331818
H 5.013532066732579 1.1272233247020806 -1.7862334296010283