14

C 1.5686250546136282 0.8505366135527264 -0.595996705294606
O 2.376541059587786 -0.08188423989242087 0.09424336203255278
C 2.9297861221922066 -1.0562557766330065 -0.7336726143893202
C 3.7714952029373467 -1.9911869175654333 0.12017851732495
C 2.830403813935172 -3.139914830959338 0.23862095012979434
N 1.8346079534918995 -3.071624564835558 -0.5401136685734772
O 1.9210024959872103 -1.9058911904827773 -1.2870243355572573
H 1.2635007812534171 1.595647048154702 0.13174970811232614
H 0.6861112814140062 0.3624407395877563 -1.0254123079307902
H 2.1338077450809774 1.3395040199977233 -1.3934138484924292
H 3.443437227551059 -0.6029272846869197 -1.5870749004281732
H 4.021908971233942 -1.530485156352951 1.0753824853394323
H 4.705092328217175 -2.282448607978169 -0.36852940573391146
H 2.934251947434741 -3.99768850423297 0.8849096001644315