12

C 3.08707015579831 -1.2467942282334268 0.3824783808944564
O 2.6113499322111773 0.03208083440385525 0.029996167890238637
C 3.11425174645294 0.5655781758197808 -1.0799185794089303
N 2.7125307573696658 1.7528116535265625 -1.4452744649643081
O 3.389444768356726 2.0210087020654206 -2.613695390072977
C 4.178633993171697 0.9887426634444464 -2.919573479592123
C 4.067671896120599 0.019315211517666783 -1.9942657084330777
H 2.5762691787263896 -1.5177161718820487 1.308340088675312
H 4.162273998405528 -1.2485556374135567 0.5564494099781389
H 2.8339044202373262 -1.9831168225109919 -0.39479123556208384
H 4.7606457803840145 1.088387210524294 -3.8196491165192983
H 4.572262741202307 -0.9310166346333143 -1.962620522837851