17

C 2.609729768563497 0.1179102832274737 1.3111290363382568
O 1.8546868292014933 0.34576692201673814 0.1424225498404154
C 2.62123228692244 0.8127312996522117 -0.9014974923653031
C 1.9072232316243891 1.6904271046695099 -1.8926666292026784
N 0.5364042939288322 2.059626272324931 -1.7711066370894135
C 2.9368135310878367 2.287739240197853 -0.9712240273456048
N 4.172329731807194 2.802915663510936 -1.4626149976419396
H 1.9256556626887276 -0.2253845918235626 2.088163755219578
H 3.102055100704948 1.0412010164368695 1.65023241398345
H 3.3747010451280124 -0.6523325825273003 1.1527277882895117
H 3.3779011384798956 0.11989130529040405 -1.2741106249913674
H 2.2304091203492593 1.5750169208635354 -2.927059966455815
H 0.3082354627414753 2.1938366310073683 -0.797433935461034
H -0.05612845504615307 1.295806462743322 -2.096452078123068
H 2.49863719585456 2.8575434542141345 -0.15500804677965055
H 4.18014742762052 2.899704233118485 -2.468437652740931
H 4.967209809312494 2.236313669772477 -1.184926209684953