14

C 1.1744251716818574 -0.020801023523614435 0.2477210966883513
O 2.5532361093883225 -0.07628245082460537 -0.05381775953395236
C 2.806960792015164 -0.5588808186609464 -1.3161862671081435
C 4.311267778466769 -0.7053370706717181 -1.6354284818807512
N 4.051373991400644 -2.1159400936751105 -1.9008729552981456
C 2.7393555954443793 -2.103300612311071 -1.522082102015755
O 1.9119392050697317 -2.954783812410459 -1.397327544160269
H 1.0719856158515442 0.3808127012429536 1.257385519881461
H 0.7166845847148872 -1.0217300891815815 0.20967141498784403
H 0.6432588353677275 0.6302264833622647 -0.4518879489502688
H 2.2417411853242113 -0.022026781291318864 -2.090502229490183
H 4.932940607812145 -0.5140485606871381 -0.7643037892867374
H 4.669022820271761 -0.14475676873568896 -2.5005359425656746
H 4.672177180403725 -2.8861511050798407 -2.1247182078948876