18

C 2.2828510892570737 0.5545393844921137 -1.017761472902421
O 1.9287651775118502 -0.27878949917986684 0.04404826557603249
C 3.020608707503868 -0.9550130368682531 0.5996504108596629
C 2.5772726302306705 -1.9241723263311232 1.6973247526071238
N 2.6856683183189496 -3.031436953477346 0.7480700913849259
C 3.2351878496041535 -4.277248428848384 1.2091533813346151
C 3.4784172192237124 -2.2215505784782623 -0.16450790553863398
H 1.3740864296386264 1.0536866874290776 -1.367477913189002
H 2.721172443515719 -0.003526360369510327 -1.856095850335281
H 3.011882492741364 1.3204818602157193 -0.6997717676635863
H 3.813736130530372 -0.24637127418132665 0.8638219904821721
H 1.5718236903133207 -1.7519384057518865 2.1070369813380707
H 3.3072286904664265 -1.9766406418503086 2.5114680450054014
H 2.5661207137786333 -4.734956130345327 1.9379747167109334
H 4.233221302724323 -4.163574438866021 1.6693764755969058
H 3.323018735793647 -4.971618645547009 0.3718058333093853
H 3.193636206626914 -2.2970294975169008 -1.220339504571605
H 4.559619064171171 -2.37371756829109 -0.06839708400397479