13

C 2.696917557241439 -1.3832168368202082 0.4644182631745234
O 2.3526673164329974 -0.10871609894000112 -0.021674404704375986
C 2.8907073949229334 0.17324532335720197 -1.2706720031036416
C 2.761495682047547 1.6060201638465743 -1.681372341582791
N 2.314017154936302 1.7463181650892154 -2.869136242258306
N 2.0179244219957186 0.43335091258040503 -3.3959386537108283
C 2.2821243762640453 -0.43468792625017066 -2.502258096450719
H 2.2669817110710992 -1.4714032680588618 1.4611869995453517
H 3.7923045771267394 -1.4932280617199285 0.5327139609115262
H 2.2964745662288877 -2.1887714023840377 -0.16530966456559207
H 3.980183072652923 -0.06649468578166198 -1.2932442490444664
H 3.058518567420451 2.4580036714636257 -1.0785862224610447
H 2.141270046933934 -1.4896283984151937 -2.6914235921517635