14

C 1.9027363808425486 1.4937845286203875 0.38720427729940077
O 2.274127932934009 0.16089502411076384 0.13822854910992868
C 2.8665272965371913 -0.48220253982098704 1.246690218511817
C 3.393550513739927 -1.838428962708892 0.841056960296375
O 2.473104200813425 -2.8078145659182816 1.3740625406012934
N 1.6499896408826282 -2.181963830007673 2.2694386141813174
C 1.854676375870231 -0.9252364141291166 2.2652142472968344
H 1.5520937317980856 1.9071278463964123 -0.5485234200291921
H 2.766647246149925 2.0882714285871766 0.7400179903865292
H 1.098815529408733 1.569189010710294 1.1297132420815519
H 3.640667693617877 0.16396279334713545 1.6731916791137966
H 4.383163125054698 -2.044278845588507 1.276673480025607
H 3.4297961760071405 -1.9520697489959715 -0.2394250910885362
H 1.2612276659458461 -0.3011378538770064 2.9206937479665696