18

C 1.6171541863812826 -2.540744158683815 -0.7288362324899366
O 2.9655831032274564 -2.626982620469565 -0.36744886975977026
C 3.5848335292895652 -1.357171855959696 -0.3164974923874663
C 5.006890739976186 -1.5084103956684323 0.10786143346626154
C 6.045569086582526 -1.9556345803731028 -0.8867046547381299
C 6.04921458152705 -0.5501372013453989 -0.39451222822821413
N 7.147824280032091 -0.0776014119548603 0.3987788917710165
H 1.2136217758026526 -3.5571144685600165 -0.7379898772322585
H 1.49559101358122 -2.0978648991651028 -1.7252107201418312
H 1.0387539412653193 -1.9368826134967707 -0.013807392595098045
H 3.0344178240826696 -0.7116500630744746 0.38681445298227146
H 3.5432635694949584 -0.8806336652568211 -1.3069932326111948
H 5.14918045092784 -1.851406893219164 1.1271242050955759
H 5.725610635556006 -2.1509706389076926 -1.9009934528466943
H 6.825118444123241 -2.6066236347641167 -0.52959924987572
H 5.701051492178588 0.19971501668701103 -1.1073384124856935
H 7.630764989902396 -0.8370544373997914 0.8455748639519364
H 6.830485722676472 0.5569783924265047 1.1275679763722433