18

C 3.2731016123547496 1.602935720185839 1.8568023456761344
O 4.2487690897383725 0.8174549447946773 1.2372820331208323
C 3.8153125596049575 -0.4989729523873906 1.0042361715668089
C 4.907153535040625 -1.303309300724378 0.337843538303624
C 5.55818028224217 -0.6584649664607706 -0.8986346753068812
C 6.788451510758433 -0.419256170412195 -0.003591573167078831
N 6.213423521209945 -1.3107121277971658 1.0248530018433157
H 3.693048017597986 2.5908126042989053 2.0029385088850793
H 2.987335092805651 1.1867369284299647 2.837749203725164
H 2.3605663130101755 1.681987145983508 1.246928354000625
H 2.918008939266663 -0.5075739944393873 0.36727883536892175
H 3.5342234374955166 -0.9732343329539684 1.9603463674746116
H 4.501031624257024 -2.320228246357641 0.18122467844528076
H 5.073473007073173 0.2270600247029092 -1.282572203329397
H 5.735585267301214 -1.3668351567878099 -1.707835834802229
H 6.883335219874698 0.6208919956139396 0.31067583126742265
H 7.751281658456806 -0.7659800722552881 -0.3861321719195659
H 6.189287440761542 -0.910005169949824 1.9534981629803057