18

C 1.4308859437105008 1.8277450878735964 -0.23401344120570772
O 2.6135132883533765 1.082548076518371 -0.11549779496487408
C 3.506494005218915 1.3162161637541323 -1.1707586903583656
C 4.725958050579021 0.45164942936882607 -1.0069396647600968
C 5.414663297079487 0.5640168284016477 0.325564104944601
C 5.521428418682309 0.1499825906962407 -2.207671350914445
N 4.627151569192997 -0.8519819942572746 -1.6380072899418348
H 0.8071049291721671 1.5866277199985153 0.617834310120127
H 0.888887894629575 1.5779927407279868 -1.1540404482069109
H 1.641963295211775 2.9030073431204673 -0.23900551957955363
H 3.8002097299131012 2.3864667414044343 -1.1800827095574473
H 3.0336730284255973 1.091929757264851 -2.1347753828921214
H 4.755835114686241 0.23715761345907213 1.128817428019914
H 5.722081371780347 1.5980359393568124 0.5308703408618617
H 6.323364337294732 -0.05855436039539193 0.3432483417935017
H 6.597440316646176 0.02413194768954631 -2.0855207026399394
H 5.223968550618236 0.5346303440055021 -3.1787341801343345
H 5.149120647462977 -1.543928249837678 -1.1132423220374956