18

C 1.5404307502922934 -0.2949625160451617 0.2832070619385422
O 2.941267245016346 -0.2506377315782664 0.24630190704821592
C 3.434605501981134 1.064556395410426 0.23984309867191775
C 4.9302222612206315 1.019518241229454 0.24569941224447714
C 5.719412690714045 0.9987168095054195 -1.008961437896072
N 5.615844678155973 2.2097354302755603 -0.21775784014203667
C 6.788482155491531 2.5986098969672584 0.5146761847916879
H 1.24575448929861 -1.3439028555669088 0.2997741235690123
H 1.1011088760982601 0.19186602355241114 -0.5897603625872431
H 1.1506714184746087 0.1958666884047106 1.1847890869785924
H 3.072164699241199 1.6118034048974639 1.1181540075786296
H 3.092262722185932 1.6050620951160324 -0.6562472474484623
H 5.367399173477182 0.4982872858834261 1.1013780517677003
H 5.215415799581854 1.0037154978891478 -1.9680910723149774
H 6.6698906246242355 0.4626207274814318 -0.9860374980927632
H 7.4339542080462815 3.20745511398591 -0.12306432286050116
H 7.37579065633386 1.7425103010590604 0.8867227807175903
H 6.499194552737868 3.2077659324537815 1.3805739816774008