18

C 1.1302889313461861 1.698141561054416 -0.33202258909763144
O 2.476824084352747 2.0102585149716767 -0.5015744824305068
C 3.314891350769552 0.8998574884775942 -0.3071217977834593
C 4.7499539845835015 1.3188647565522913 -0.4962718722503201
C 5.4158603938294485 2.19691766943886 0.5702269004171246
N 6.624976890552932 1.3699929513620905 0.4493195676154701
C 5.84336262683674 0.2959347732445753 -0.17194680567209264
H 0.5507629630473403 2.607522707232498 -0.5071707770223443
H 0.9194762660187454 1.3358583606834444 0.6860686115025545
H 0.7977415147707753 0.9277193764278617 -1.0440017908837425
H 3.0639445099657223 0.0974468142022527 -1.0162182398850512
H 3.1682335697568216 0.48658380116306266 0.7036566747238512
H 4.880900258870133 1.745167794021485 -1.4937448592928633
H 4.901486069146725 2.105081944925281 1.5394098951993473
H 5.550241612765578 3.2588124921090333 0.348886530401229
H 7.084900888042783 1.1304703365152486 1.3147251621470584
H 5.494010687214445 -0.47125052745232304 0.5277034059966528
H 6.3462843946891025 -0.2039229895102452 -1.0089455773368896