16

C 3.813294428916164 0.9483227880480101 0.5992472298855345
O 3.0581854350804347 0.1245076232046814 -0.25067560681407874
C 3.599042072184305 -1.0639338581760207 -0.5752480988476704
C 4.779830416012273 -1.5634016074737933 -0.20106313369724577
C 5.261773195222874 -2.883940666706206 -0.6427724120378335
C 4.936060703599916 -3.4463231820267195 -1.9677435849753928
N 6.2922098156731785 -2.992401239588195 -1.6894266049496773
H 3.2265497741496816 1.8602709226840637 0.7533427900688163
H 4.779780841788249 1.2132321575546334 0.14910354418523494
H 3.9930413141364736 0.4613170776159043 1.562963380251014
H 2.9271002173115046 -1.6167623030759666 -1.2252808854801698
H 5.427255259180233 -1.0070191215838007 0.4760181150903617
H 5.438463066961721 -3.59362498933599 0.16296310847727474
H 4.315434614396843 -2.850792091456163 -2.6292747898651334
H 4.827570891520565 -4.5184111954382 -2.0888089087042525
H 6.424563201264055 -2.071413552404868 -2.097955969361315