18

C 1.6396546920819248 -0.24726338467351539 -0.918695724396764
O 2.848632489299758 -0.8496081084011124 -0.5496076971169064
C 2.998059713878771 -1.0601389656248137 0.8385755332972861
C 2.191760755689978 -2.2486740517758017 1.329590840245518
C 4.4677679279888824 -1.262163293385268 1.1119731365373429
C 5.346661577700494 -1.931683981707285 0.14223470693476303
N 5.469209151217508 -0.49386016813480316 0.39045092441396106
H 1.6885040660099886 -0.037424831331059144 -1.9809605650840214
H 1.4840371374617884 0.7064970296101742 -0.3824399918944111
H 0.772117830691681 -0.8940546801382087 -0.7214253788073369
H 2.669801130500451 -0.1542014080902221 1.3630220119717071
H 2.485796643164778 -3.1522242104807714 0.7990288809582365
H 1.1150020613891285 -2.0948801213534103 1.1880370655935961
H 2.3643945439232286 -2.4025760952480755 2.4014351450069706
H 4.688716658480119 -1.3765459229514942 2.1771770600530878
H 4.906304063409236 -2.254348287257896 -0.792092075888041
H 6.1822388965650275 -2.531434958678661 0.49639101437354977
H 4.9962713440601965 -0.004182861106832072 -0.3723167859524019