20

C 1.9812767239812534 0.2555226476310774 0.26205791806752055
O 2.540745543207801 -0.9923266377447936 -0.03492405591535165
C 3.9379911214008465 -0.9360837605725221 -0.16828023877296394
C 4.469341697774707 -2.3198230831310895 -0.4683793007522234
C 4.237637577923933 -3.3171970905006636 0.6569009314510041
C 4.782992120650389 -4.696366602202012 0.33920896152624114
N 4.519227218296254 -5.6270516244341895 1.4378482135929802
H 0.9029324046288231 0.12035391170024819 0.3399913489354536
H 2.180754394920691 0.9915944237165643 -0.5323426912336668
H 2.3618170468032775 0.6589389770167666 1.209864947906996
H 4.388167855419188 -0.5453937204538213 0.7588821514234336
H 4.210634506320091 -0.24223807669757896 -0.9789784468361924
H 5.545758599299332 -2.230643552917928 -0.6762513735229224
H 4.001125145299336 -2.6860595903812117 -1.3802625072090748
H 3.1698134002066167 -3.4020208883104486 0.87846812550629
H 4.719146487656868 -2.944066094967703 1.5783924656697912
H 5.856978731877018 -4.610854686741861 0.09099589715671388
H 4.286615072942873 -5.077515590025197 -0.5579785944784742
H 5.000172226529082 -5.326646997799192 2.2774714154224056
H 4.862686886030232 -6.552655987154126 1.205892955643539