18

C 4.447402839388959 0.7082046360391032 0.786670307293139
O 3.340845825947361 -0.09086122933103072 0.4565737140879704
C 3.4083314985096402 -0.7732615919407817 -0.6933677874620837
C 4.40246942341081 -0.807199351006112 -1.5804452859502516
C 4.33223741891816 -1.6130723226694106 -2.841833465439229
C 4.395461695640484 -0.7566652038373806 -4.0994608082791375
N 4.344130640300363 -1.5990671374231913 -5.280340143702015
H 4.226334815635308 1.1808065968555923 1.7408466167738794
H 4.622678422551981 1.4714146378084973 0.02892100144550282
H 5.357541627744085 0.09751969478747832 0.8936536188080576
H 2.499673260396717 -1.3487162723220767 -0.8483331207164594
H 5.303742151572177 -0.22849067392994044 -1.4144403076589123
H 3.414563056878921 -2.206949541893426 -2.8608573985611816
H 5.157827058924567 -2.3261122630857294 -2.8607673270683134
H 5.291839423158678 -0.11041988504258042 -4.043335268540948
H 3.531475308657168 -0.09552941875766689 -4.112389385346712
H 5.164253366314907 -2.1929482761093815 -5.328182610402998
H 4.3446673601447685 -1.0316613966833896 -6.123371461826607