18

C 2.068309698807326 -0.051932290048268756 -1.4791288805061695
O 3.4095073131805584 -0.09869072136986576 -1.0607293454809141
C 3.7330603520146606 0.7502280174180416 -0.06881713654186386
C 4.851380740798191 0.6611026559259309 0.64901842683774
C 5.84943380163364 -0.43898945346001794 0.4558872531284257
C 5.146881633045556 1.6968701515406166 1.6871529891505683
N 5.223915212288767 1.0976601481637351 3.020478355076979
H 1.391615796963121 -0.3695403498516944 -0.6883578961164925
H 1.9675366929899747 -0.7224153484289169 -2.3357132252374804
H 1.7919397057183672 0.9641299026627905 -1.7976176982447185
H 3.0247742681359355 1.5620211974218805 0.1057298961145258
H 6.762350764779188 -0.05100893735657484 -0.007388672052145866
H 5.454671036532226 -1.22989254725267 -0.18658641860010658
H 6.1314709773261225 -0.8615143999179186 1.420604980441398
H 4.396694395870624 2.5061620367458204 1.6031514479307645
H 6.120889415797924 2.14848835466763 1.4753110633827287
H 4.316541837995067 0.7590345187995402 3.3074053895124926
H 5.524264901320805 1.7862816330094549 3.701621318980917