14

C 0.9919553138216951 -0.36378498665053666 -0.5577024349425812
O 2.378496052525718 -0.22889960927284758 -0.275124736538022
C 3.117840606451676 0.27718741715802525 -1.258263716367523
C 4.440080385948789 0.45760224552736584 -1.1308173780571729
C 5.226447547972462 0.12346228091167454 0.09620983125957862
C 5.129366237240183 1.0078509673445746 -2.249071925203135
N 5.723187740778893 1.4451619455483278 -3.1269342451333926
H 0.5309566001203606 -0.7853912988750308 0.3281367192164787
H 0.8284133600584528 -1.0309102709779767 -1.4133463605257108
H 0.5437544901294673 0.6090649863466701 -0.7704850970727757
H 2.6013678110149554 0.5420132649497615 -2.1777530914022147
H 4.5723253810257845 -0.29246973727051817 0.8658392257924039
H 5.728008743798442 1.0112379341404865 0.5036120365254232
H 6.007924647642842 -0.61912802954622 -0.12743552859413707