14

C 3.615915577964543 -1.091335561621393 -0.2792507046753498
O 2.7687473476761633 -0.026074004095844483 0.0909779216785551
C 3.2956861513909304 0.9143700672710348 0.8846856899952333
C 4.5252210471842655 0.9743470354791056 1.3924709818614596
C 4.949572274750082 2.098634349021955 2.280071658462718
C 6.089359313534725 2.845551328218696 1.7429732742243436
N 6.987892663585028 3.4227466491906555 1.3107700241165419
H 3.0324234543154605 -1.7433835565553064 -0.9213484666315204
H 3.9504647648671214 -1.6521319411338844 0.6015365003331675
H 4.489220435538164 -0.7256227393050529 -0.8350565824893692
H 2.566770642071843 1.688289702837624 1.0980193750093006
H 5.263033712756497 0.20761714752607544 1.183733741890709
H 5.24383262091095 1.736341543072916 3.275182137868414
H 4.121760729958589 2.797370082585099 2.4413899741622007