14

C 2.317767357390095 -0.995067435157336 0.03963864414400423
O 2.123432746996913 0.39105157950230496 0.1928862925323186
C 2.649830184695636 1.156667866302335 -0.850954731752922
C 2.2713205039350615 2.5879833262575103 -0.645786585969253
C 1.6293383904665786 3.303837241693715 -1.558019746969761
C 4.129876532840281 1.031731760871084 -0.9086913912989264
N 5.276478677807293 0.9241015445535818 -0.9489207686512144
H 1.8410805080693295 -1.473492214468898 0.8923729159558462
H 3.384986710011254 -1.2564837237526616 0.035680808862989494
H 1.8538017353156544 -1.3602147618025706 -0.8853160118275363
H 2.2701977933108335 0.8091039976230437 -1.8292097592145962
H 2.550653247131996 3.0139623945997527 0.30834339960950397
H 1.3433451092546993 2.875266154498217 -2.520788589378399
H 1.3680948296074213 4.336929988672739 -1.3812463348103377