20

C 1.62206144162959 0.03056820482513515 0.0786564187009594
O 2.9139019521120186 -0.49751320023971396 0.005317485054509456
C 3.0888199212774134 -1.8714584408446517 0.36051419747073166
C 2.5265709754611003 -2.176419155135568 1.7432035756901278
C 2.4657745571107204 -2.786232723926037 -0.6856116814138181
C 4.602669075422179 -2.057000393601197 0.3446473641456397
N 5.2555890400797605 -1.196880557601197 1.3102482073322466
H 1.6724826401971933 1.0393289355222808 -0.33190234370084526
H 1.2485756252426494 0.08329770142468915 1.1022277136096497
H 0.8989284035637721 -0.5428526083926433 -0.525122969709987
H 1.4447254225725472 -2.0823151668057926 1.7654400523704217
H 2.965291957153432 -1.5079189877802326 2.4880805145723777
H 2.7728107550954126 -3.204742282266165 2.0311905766834073
H 1.3821303245601415 -2.696598118163062 -0.6975447466772888
H 2.712290971056307 -3.826995469920371 -0.47942260444788837
H 2.8441155486676615 -2.534775715024852 -1.6815791334876002
H 4.93385014610327 -1.891511363489122 -0.6952445604480199
H 4.83294783036207 -3.096583929525531 0.5872127192208841
H 5.063496905439265 -0.23131892116216607 1.069925973818817
H 6.257716996011189 -1.3132440393762064 1.2818865845962137