16

C 2.5733510340494177 0.4243487621747487 1.1341687639987699
O 2.2577246774025683 -0.04133374983026483 -0.16312602509063936
C 2.767272747466069 0.7046702951572603 -1.249127081746631
C 2.362153096974681 -0.05586436740576845 -2.502520925734913
C 2.2440461872896873 2.1385467625438457 -1.272570982702563
C 4.2536271519670175 0.7397644925843536 -1.1784573755581653
N 5.402120051398805 0.7757623272437549 -1.116612303647512
H 2.224520435271065 -0.3397470551033294 1.8193028216320124
H 2.0714920582664593 1.3747944739821794 1.361512545808329
H 3.6612858267727146 0.5458774849067811 1.2605644850443611
H 1.2692001744251096 -0.08235093594477977 -2.5555388097319534
H 2.731126385071162 -1.0839768044885676 -2.449412093346216
H 2.7544528067706926 0.43082651079935386 -3.3927471953290396
H 1.1500509548414084 2.1021024260938934 -1.275997095012257
H 2.5843449110663848 2.6498129171508578 -2.171694118277355
H 2.5783536818079558 2.7107810154141716 -0.4089742045406577