18

C 1.04217603612315 0.7503590058360197 1.0210082818543167
O 2.435763443247644 0.7323727692370249 0.9038220078505338
C 2.8922962559465533 1.5785876494891333 -0.11183898864376765
C 4.377237642369468 1.4428692839458466 -0.23550096605938775
C 5.222726272841424 2.458655949838065 -0.18372126419722828
C 6.701142559807797 2.3370332246748493 -0.3265165138743833
N 7.17742381473026 3.205234077496119 -1.3965840638941787
H 0.7657324730603052 0.0728924983231208 1.8234534058927407
H 0.5526797525065837 0.424486307711938 0.08799534690592516
H 0.6612186059794737 1.75203474878401 1.260660604352509
H 2.6186330912246625 2.624972390669778 0.09560991520137331
H 2.4106236378134565 1.2986514903482322 -1.0728204456573402
H 4.746588043509161 0.43374883216051957 -0.3856620285175917
H 4.84410018455333 3.4749217679764777 -0.043264978201323454
H 6.964431872908385 1.2752605458578163 -0.45734040179400975
H 7.175008700799798 2.68166153905192 0.599335712105863
H 6.832120574328216 2.8901135455774134 -2.293640573852353
H 8.188007048284092 3.1996710991294153 -1.449493198130451