14

C 1.330630256938763 0.22312765134196996 0.07492969724635543
O 2.702060846064736 -0.0848157554575895 0.12730481867851803
C 3.0226819349048917 -1.2211747276377058 -0.617317653846007
C 4.467927078638942 -1.517739157143607 -0.5476135063057449
C 5.342918447124892 -0.7938265410468756 0.15853788634675475
C 6.727055569257799 -1.123610606258662 0.20350662178416062
N 7.858764516314545 -1.3701874964270617 0.2535921900407331
H 1.1803731170776268 1.11096426060428 0.6817808009407023
H 0.7144460798306924 -0.5910589611364238 0.4727168016877281
H 1.012885043204114 0.43686214625798225 -0.9503441253301304
H 2.7409633013492156 -1.0861989081877355 -1.6853400747290337
H 2.454355524026432 -2.096808834244448 -0.2656925214158537
H 4.806719834477094 -2.3856719015664125 -1.0980293865359574
H 5.021244450773402 0.07064874661884975 0.716899539516899