15

C 1.0993080616035011 0.1769869909684994 -0.6911346838295898
O 1.2026897605465277 -1.1853055984390806 -1.0818227164288947
C 2.446810577733339 -1.6837721319858783 -1.1885844608636735
C 2.4866286603012298 -3.0816622852863453 -1.5992988248847917
C 1.4431508241771087 -3.758915161660096 -2.059157389039583
N 3.453061547295559 -0.9347622147138225 -0.9251057145002041
N 4.721450543168748 -1.479059324285019 -1.04172591618877
H 1.5339362854319636 0.33043989857462913 0.3019782788034488
H 0.026167078831130917 0.39186968591444193 -0.6626910562651522
H 1.6076415833522983 0.8235462710823186 -1.399751793090437
H 3.442974332595079 -3.5824065949916175 -1.4688103610494656
H 0.4759743638138228 -3.2893331245584214 -2.183338205793152
H 1.5331846683910197 -4.810547477814953 -2.3258603681234367
H 5.378663807913946 -0.7091745733226592 -1.0065889907429406
H 4.860355574441865 -1.9795196584975119 -1.9150541866826163