17

C 1.3359452097903934 1.6541752963893774 -0.4225898903543349
O 2.664428131594563 2.1195240302835083 -0.44034200025958575
C 3.4537327606211856 1.4396561953094147 -1.3934085810470678
C 4.8621207003486235 2.010285809943456 -1.3895452281419631
C 4.982373364861574 3.3944053433511145 -1.9963442964349853
N 4.290337854949874 4.356242907401472 -1.3272559895902818
N 5.68217341980793 3.689427796435956 -3.0229242361832416
H 0.8028145525209714 2.227569036289781 0.344514516219553
H 1.2958804106976982 0.5960044466221668 -0.1644694834516376
H 0.841800550034824 1.8047579723078992 -1.384427392113732
H 3.003505650732693 1.5309962446899938 -2.3909482887978544
H 3.4949464065305778 0.36791132006991106 -1.1391433488893403
H 5.507502983804137 1.332755036290503 -1.9504079609287748
H 5.221985217455695 2.034292455596016 -0.35984151908033846
H 3.511319288549937 4.060445465380971 -0.7590355625811953
H 4.216316136538803 5.241420943675762 -1.798697442791487
H 6.170946080343511 2.878524461940586 -3.3613168495028463