14

C 1.1888349834085572 -0.001658491833245439 -0.058565246134919854
O 2.598073900299651 -0.08191666240716375 0.029848173428724145
C 3.242731784359111 -0.1123976425438585 -1.1447679347836726
C 4.569110152879328 -0.18420220402106918 -1.2350126955921092
C 5.1793144429834745 -0.21447412060439908 -2.577484084272363
N 6.54246617690546 -0.2958926062222102 -2.5740619520058794
O 4.543879221114154 -0.18826598988027723 -3.6150820810737807
H 0.8173499145976636 0.01857701957432566 0.9641370952362144
H 0.7784473795006204 -0.8745562276297123 -0.5814108784284014
H 0.8792558053539811 0.9044927255845701 -0.582056135269525
H 2.6467314496530108 -0.08410696006779621 -2.0484515828938554
H 5.183117346570054 -0.22486134889342907 -0.3416185651408417
H 7.07643993876186 -0.325318351545917 -1.7282751089698405
H 7.015909823929838 -0.3160181258818429 -3.461132321613766