14

C 1.4100130419281374 0.6206111422165219 -0.3785768479351766
O 2.784770500253376 0.6914609391267956 -0.07756821917819273
C 3.1594415959543105 1.569919027501378 0.8787801463368798
C 2.343954544646139 2.37684481566507 1.5741460901295017
C 4.609445936878574 1.5098682065863018 1.0443608601798304
N 5.21560319544178 2.233107933709251 1.8940740668760567
O 6.5691926710128525 2.002227189732404 1.8848629859318504
H 1.3059835248217264 -0.12434711249464132 -1.1646109977493702
H 1.0349458606627642 1.5907132359135985 -0.7303709023057074
H 0.8324545783434822 0.31835303476875454 0.5031904783452026
H 1.2778517731128873 2.3948190698208562 1.4277998399238159
H 2.7720961765835535 3.0283838778121 2.311677405789533
H 5.156329001301942 0.8087728511991082 0.4156191470132246
H 6.901432005189004 2.608343239015177 2.552419020714311