16

C 3.033715162069312 0.6257772789862822 -0.5956327421130814
O 2.720526592809746 -0.6382658637536744 -0.08449190724359167
C 3.0905361500991653 -0.8145132783477798 1.2654910885028932
C 2.407453022616743 -2.079039823564952 1.746201547791139
C 4.578051883895459 -0.9084266085841407 1.4062450373567565
N 5.200417424776643 -0.07627271553832467 2.1182926925532577
O 6.5592812096713065 -0.3238033853867966 2.1506636867374693
H 2.6835473444015028 0.6573920175727216 -1.6290147198104306
H 4.1102773291614 0.8392298801512394 -0.5785005179830021
H 2.5187145304977645 1.4170525104459541 -0.03077793869281811
H 2.746905125214541 0.04480501753748921 1.8594024148398873
H 2.7527284794270392 -2.945004112969753 1.1708493701881144
H 1.3283790689603237 -1.9943883616928653 1.6380086428424363
H 2.645555290920664 -2.264676994651239 2.802300159648846
H 5.099074852738242 -1.706662114418951 0.8729485022691503
H 6.897378228193505 0.3678491223421569 2.720849869318055