18

C 1.1980652204187208 -0.12979407686449915 -0.5764727541766137
O 2.560034432640412 0.12965469869577734 -0.37828361854337494
C 3.0615801528755444 1.08554539573946 -1.27589010658714
C 4.531038148873312 1.296068423585723 -0.9717565039422053
N 5.085027467959374 2.2780112140292648 -1.8790673294348137
C 6.529851422097659 2.2640769604277393 -2.0197383817687276
C 5.658420269216297 1.7583125431509021 -3.104794974182284
H 0.8905458090472724 -0.8644239451666936 0.1579217878521885
H 0.9999883364849741 -0.5139668073289652 -1.5819401636821224
H 0.6003600491729161 0.7855317437444789 -0.4410902853939995
H 2.5223229310475794 2.0364488546109536 -1.1755468354520697
H 2.938968148752189 0.7372577341658758 -2.3164607726038455
H 5.056044116003383 0.32911954976623986 -1.025191469844168
H 4.638987170046829 1.6676054568367673 0.05174929875377626
H 7.081698380150518 1.524480195183267 -1.4524531903316782
H 7.002214989827576 3.2344511315704865 -2.10399026130016
H 5.632585228678795 0.6857804160494679 -3.26333879531371
H 5.486591840018373 2.358630499715661 -3.9955167893026897