16

C 2.33817819308799 -0.46869424780472657 -0.7212348231265728
O 2.166476702639064 -0.5413529031429537 0.667033479441406
C 2.7262546450104366 0.5460415012164211 1.3631452518782152
C 2.2795221430696238 0.42382030803301035 2.8183017143234337
N 2.7401964854208103 1.5716241414702843 3.580681884388096
C 4.190663072381263 0.5668416016408255 1.270698957450382
C 5.390232842850679 0.5707161594907396 1.2038317090191852
H 1.8297057073497487 -1.3289748886673165 -1.1512079371801893
H 3.397905824021647 -0.5016309191322121 -1.0022696345427908
H 1.8918095628187455 0.4472572057127207 -1.1349973931988488
H 2.3533378382882213 1.491180638493367 0.9639207732026539
H 2.6170582635408706 -0.5540321462282345 3.1994774078510706
H 1.1852773013225142 0.415183305486403 2.811439973396983
H 3.748015755878523 1.5488205722342707 3.677663612222451
H 2.345456967622032 1.565207724346904 4.511390178950551
H 6.461060117235746 0.5848506361815761 1.1467166945309915