13

C 3.013393289211985 -0.07786426880897292 1.2327550775198248
O 2.31203198739208 0.10335642742158686 0.0199342605717839
C 3.051318774364405 0.2738267869953121 -1.1124384080262737
C 2.4047909776752006 0.45608077578654155 -2.279495654085468
N 1.0535589669864507 0.4759125755867011 -2.3853129527867454
C 4.4670979330334335 0.2692730164142344 -1.0657396973255315
N 5.6230106867637355 0.26352958710870983 -1.0149984776542604
H 2.261121049937465 -0.20187020838929887 2.0074812454575324
H 3.647136067873265 0.7890105665256657 1.4674046422245204
H 3.6472233053382275 -0.9672416737048929 1.1958030422281456
H 2.970903967117347 0.5937020050458239 -3.185635817775801
H 0.49114423094764337 0.3519784645111614 -1.5632482273823531
H 0.6022980279748108 0.6059801489499288 -3.26888088021732