18

C 4.545976428338327 2.4152723329430654 2.3263888929121035
O 5.031694110738384 1.1414592627918227 2.659228928704769
C 4.722354469641332 0.17702625909382147 1.677935635514119
C 5.398595843362012 -1.1223254446780002 2.0412583191077496
N 6.832080076286612 -0.9872762768188456 1.8917068600398301
C 5.003808469313517 -1.598546961050256 3.44413763234196
O 3.6122775675755956 -1.725338789634665 3.631456990948393
H 4.822119929862353 3.098642662085245 3.13613620028646
H 3.4601440291432413 2.416859038638138 2.203326666825729
H 4.999122844707947 2.7820846074180507 1.3910763204099694
H 3.638788039047528 0.03826596449714893 1.600963721213246
H 5.093766179766481 0.5091787882679043 0.6881100233959037
H 5.048064851782901 -1.8698763955160234 1.3183290923163404
H 7.3137525896877635 -1.8447824199971528 2.1453228616957554
H 7.174129339991071 -0.2645524200868 2.513697545316257
H 5.445753345565651 -0.9264334773491867 4.186748895017534
H 5.421004321805491 -2.5910593377934297 3.6018016805005684
H 3.259083608719187 -0.8408931075407983 3.787625844170873