15

C 1.7944514986384041 0.18293894486800255 -0.3374403428089643
O 1.3679595366222235 -0.43186952403113155 0.8646505258744253
C 2.3132019660799457 -0.7952824942588704 1.7259557840666193
C 1.764323798323525 -1.4305485751227307 2.9662532867270803
N 3.544038497250069 -0.5884281942510202 1.4428231171575139
N 4.4034397328698525 -1.0213681782088349 2.438852056998536
C 5.619480790829938 -0.823226191769895 2.1755515819898514
H 0.8881279507869186 0.3995514737051454 -0.8959377635997269
H 2.4427393423554626 -0.49725562013722735 -0.9037892239930612
H 2.345984924339194 1.0994385100746287 -0.1345100563489714
H 0.679505338183616 -1.4587672661614823 2.9068325397895993
H 2.0725833864816035 -0.8614412766418957 3.8415508244597265
H 2.161217107600496 -2.440869757179881 3.0823689730190464
H 6.356012659389843 -1.1423935440939272 2.9057659731875587
H 5.945360863562046 -0.3579246756868732 1.2512826162804793