18

C 1.2698354908763394 -0.9292078997883642 2.5256304523556428
O 2.6579157024969566 -0.8457437177478928 2.347587688018343
C 3.0387858439796074 0.2780988768205037 1.5969298599057855
C 4.535954980086671 0.2769166975040966 1.4323975027830487
O 4.868714020358469 1.3342293187615246 0.5612341153073281
C 5.276795874756611 0.44966096547592743 2.7547887998994542
N 6.69509138859845 0.6457479464482945 2.4695470245420603
H 1.0612318755015366 -1.8196920537799202 3.1123085148825664
H 0.7539399148875503 -1.0134502722271783 1.5626472101710498
H 0.8745403989579745 -0.05715313184357087 3.06247985046005
H 2.7186797962304885 1.208111851698675 2.088244797232909
H 2.5682125091392733 0.25404679905078165 0.5965299523474221
H 4.8344442933332825 -0.6842749649528 0.9872418077750859
H 5.794609344466518 1.5284081543914276 0.7611546542749598
H 5.048627969144789 -0.39270752040213747 3.411516503201462
H 4.901462601620233 1.3638740275922088 3.231890335412825
H 7.144533169587207 -0.2456075604976698 2.2699516294728497
H 7.173702518269735 1.0594011507082115 3.2523931708729092