13

C 3.046231781435581 0.3623441895331122 -1.1871054410118043
O 2.4150680324934735 -0.31976453757738066 -0.11104873237163863
C 3.1875202430038936 -0.9086594175124315 0.7996083217702028
N 2.434464835671098 -1.5311931708366049 1.7410386573891379
C 4.546818911373494 -0.912029720963283 0.7842154722633702
C 5.246710841530004 -1.540987975623645 1.822587457261859
N 5.7781603644493025 -2.062125535058826 2.707142836940552
H 2.2405078424601528 0.7769823573291104 -1.785312027988453
H 3.6416672381715163 -0.3307655682878896 -1.785007996791771
H 3.6829648475061565 1.168643911626447 -0.8167820718971635
H 1.477625239284815 -1.2461921485923806 1.8277312853578926
H 2.901949223961858 -1.8727693405715777 2.560164368093541
H 5.106892507095915 -0.4567133597084106 -0.020410084568660624