15

C 1.1318351455649402 -0.028144428196417076 -1.8587505054750544
O 1.992135362802279 0.14691020544847336 -0.7330501376660371
C 3.033072774576972 0.9396008828738136 -0.9133631348977712
N 3.285831485053952 1.5267710388701512 -2.007053861173701
N 4.462123972752971 2.313245344302742 -1.908097563436598
C 5.1624622515609895 2.3526423264676137 -3.1911400401255263
C 4.356735772334507 3.507544338452907 -2.7440999388355056
H 0.3429890332163468 -0.7002506677610587 -1.5250032708235295
H 1.6730677877054598 -0.46032935287416243 -2.699702048006941
H 0.7060888717250553 0.9293699513169567 -2.1617702069443023
H 3.653471189946204 1.0305012435535215 -0.0269451709195688
H 4.747520025068029 1.7408924466826237 -3.9824084835243485
H 6.2441032588388845 2.372099643091366 -3.1200141195726414
H 3.4018211607556914 3.663667856447257 -3.231115479273438
H 4.831425564669372 4.393205165925741 -2.3317615595676093