15

C 2.4016115290898696 -1.2701522344291094 -0.4204528677587341
O 2.293792156351862 -0.21975269890127358 0.5335495786761882
C 3.400535588365786 0.4076256416658039 0.9689059080346402
N 3.383509641179254 1.2470048410849752 1.9101163685005706
N 4.581946603163324 0.020872306385480915 0.3171738458940871
C 5.69912707874669 0.9206415667788316 0.3758483328937906
C 4.954235479219869 0.7425266193577108 -0.8873092921454063
H 1.4035266102754547 -1.6882897345307823 -0.5050778926322395
H 3.1103127936988235 -2.0289969221439192 -0.0898547047784259
H 2.7152366681849864 -0.8985917668399199 -1.3983959210201329
H 2.4424670297966906 1.3197887962561223 2.2869867037353493
H 6.667487248522481 0.43447466424020464 0.5022503271602985
H 5.545121840951993 1.8412585047051073 0.9313580392223186
H 5.366275502209791 0.13442853350706038 -1.6937463404149022
H 4.31408926356075 1.5558406641404614 -1.2057052459821969