12

C 3.0178143187757884 -1.1088511452226073 -0.5157603653257121
O 2.359424526776463 -0.1531611500575647 0.30216742902605725
C 3.095091167558453 0.7025667673413587 1.0203388234243864
N 2.5755231534625955 1.581718638144646 1.7803911896903977
O 1.197399768341114 1.5336424829619422 1.7634815220402416
C 4.51935494962846 0.6521512726287924 0.9588997772253907
C 5.720553994559128 0.5894467827568444 0.8868624360909222
H 2.23572645120146 -1.682494823692624 -0.9907112245622948
H 3.649191398238585 -1.7707489169863273 0.08446279762081296
H 3.63599158383506 -0.6173904089750076 -1.2767090296608516
H 0.9547910756295875 2.2410791085202204 2.3712916537645294
H 6.784123600977831 0.5488314540870156 0.8347408888613556