16

C 1.3567040636340715 -0.16732582921631564 -0.12702297969236812
O 2.778632680097326 -0.08932808074926483 -0.23751029851919864
C 3.3062696259461157 -0.7830463595741363 -1.2587068143001112
O 2.6510106123538666 -1.4249570225554884 -2.0374279874645014
C 4.807838905678672 -0.6641643828218076 -1.2583612713635077
C 5.443911639958568 -1.2577403943048584 -2.5038986697848653
N 6.888920178062712 -1.2173750181983563 -2.3770752084208024
H 1.0958053894971556 0.4438491642332059 0.7378254550757161
H 1.0332127011425174 -1.1970710789075114 0.025439710922804216
H 0.8805327431918306 0.2205805302049115 -1.0260275141520034
H 5.189788901705023 -1.1683559832556643 -0.37494115516869053
H 5.072222838307637 0.3916495609426876 -1.1387268311479313
H 5.0483829292707485 -0.7405075823338876 -3.389115214914786
H 5.123678405607823 -2.301898987229823 -2.5902950822742277
H 7.22042203587199 -0.26476733236824274 -2.397070789154862
H 7.320743929658855 -1.6958767529532364 -3.1597040125824614