14

C 1.1313630676603075 -0.2750082251539243 0.10478016929966327
O 2.5501081285191223 -0.15298254676145803 0.07399239172932316
C 3.1996936684796493 -0.9260689279415327 0.9677502361347897
O 2.6295744847341593 -1.674218891562721 1.7293661746597262
C 4.641439077779613 -0.7346672223584768 0.865969587473446
C 5.451127048584287 -1.4317775071400856 1.6836786658133889
N 6.793889206550915 -1.3896622945800843 1.7318154316420393
H 0.756006956288353 0.4013125776785454 -0.6590277123540639
H 0.7398098714108905 -0.00615287223981128 1.0876847966728898
H 0.8223116318625253 -1.305532103016487 -0.11474807362710743
H 5.015246278168897 -0.030301885329270466 0.12822237526705885
H 4.986462117461813 -2.1202992503448703 2.389507460265248
H 7.312276189714221 -0.7820355086398951 1.1111082531247027
H 7.309946672804232 -1.9467332176856937 2.3803791443728906