14

C 1.5605455636195709 -0.31731489672266655 -0.73579552777392
O 2.9232817121971677 -0.13367280390205138 -0.37883222540493544
C 3.138282832721522 0.13270117216899222 0.9176394975940847
O 2.2673402358251438 0.2159967912365413 1.7585272032287254
N 4.470010986991614 0.2843446560723701 1.1361400244994582
C 4.99758299627359 0.5746959623195103 2.3887583609877803
C 6.294480441877569 0.7368597252325575 2.647968549597891
H 1.549596034526833 -0.5252847410393781 -1.8036646898699182
H 0.9762113687960434 0.5747842694111823 -0.5126499860406807
H 1.1305081361115459 -1.159368857985914 -0.18344924008338023
H 5.09040131091959 0.18810206846871802 0.3506756022052065
H 4.229283919055077 0.6544014044953396 3.154613503494812
H 7.051156975250001 0.6505554385182474 1.874450706494819
H 6.615557905378738 0.9503767898251537 3.6538360132183962