13

C 1.8553167648756643 -0.9747965925856078 0.5617793054905191
O 2.7175914519489988 0.06275860153643217 0.0869622025470534
N 2.936378650838687 0.9919371002767092 1.0537468384351927
C 2.5410702358064916 2.2706385936720563 0.9729600733740227
C 3.0420814257481767 2.870269407919396 2.1155947892844305
C 3.713812732151759 1.836685831529464 2.7893969710137956
N 3.6509678235805296 0.6895550093327846 2.1193185267758916
H 1.756868245383291 -1.6613575649627854 -0.27776018764341853
H 0.884717071636633 -0.5606439654001358 0.8368461400463976
H 2.30468887761382 -1.487143697357609 1.407693606355552
H 1.9712751265166863 2.6311733585761488 0.13716931882134534
H 2.9352053837718457 3.90684736170552 2.4007836563817992
H 4.24861010117102 1.8803974760121691 3.725799256054077