18

C 2.0836209042783085 0.9199400045968407 0.7537682293255635
O 3.073718442190526 -0.04406037106517886 0.4896716038795474
N 3.7112102810411236 -0.38023583822544527 1.6665319896205355
C 4.618571233141019 -1.2541795649667888 1.4858661635183934
C 5.43699287314537 -1.7563133452582151 2.631433376374069
C 5.226784994019352 -3.2581290788853265 2.807146118268429
C 6.903373904974581 -1.419248382943814 2.4169746212093908
H 1.622955553033497 1.1376334817531175 -0.2056831319080614
H 2.5165474940559975 1.8262594202482905 1.1715222328126502
H 1.3318637465217669 0.5228725320549374 1.4453095519292596
H 4.817685782997894 -1.6416582760957392 0.4831125252494565
H 5.077530365976717 -1.240023378237985 3.5207164353410056
H 5.544190413037181 -3.80484926626409 1.9071247864810346
H 4.180154588250097 -3.4973878093963178 2.9971396239214325
H 5.822707401139745 -3.627986049713257 3.643860499316151
H 7.288276069855123 -1.8911504184809595 1.5108651653938336
H 7.506026504067652 -1.7829090447660516 3.2555960285588563
H 7.06361739546992 -0.3423802704059003 2.326600173371081