16

C 4.18174560623077 1.505780136942193 -0.08655817200703034
O 4.912963765770086 0.379262191601364 0.34017867977470834
N 4.0827538545863495 -0.48416187973982305 1.0048848568603217
C 4.697889141428756 -1.5127155662301646 1.421985071908109
C 3.954422746015558 -2.5798649181136817 2.1580806459374693
C 3.9797571806847802 -3.886216304477402 1.4361149265628799
C 4.526634954588365 -5.00338398137507 1.9042731043386085
H 4.893226907272136 2.1515800396298417 -0.6077454794963144
H 3.7478626962671853 2.0367737895033637 0.763339615064999
H 3.3756466573840593 1.2079075799911234 -0.7723728708184595
H 5.758779790116979 -1.6411005228696196 1.2358646952505679
H 2.9200050698259434 -2.2378693596890655 2.2955715152544194
H 4.394453236843176 -2.706095547803294 3.15659018502901
H 3.5212130007004014 -3.8890269929015115 0.45120740456178343
H 4.994852776852587 -5.03582218564233 2.8779245437532714
H 4.516248977355801 -5.916917639321797 1.3230282585569941