14

C 1.689775075527603 0.21065881755056398 0.7682296826225736
O 3.0080023969816567 -0.014388711780699465 0.3003700971607587
N 3.271556253107883 0.8228011873783132 -0.754217893391484
C 4.432605013324189 0.6413976411452339 -1.2272382972282316
C 4.897850350298269 1.4896693359091249 -2.370882515698482
C 5.359338859236929 0.691338814908944 -3.4994549844943985
C 5.746668093690869 0.022387424779516333 -4.416148247647318
H 1.5510936733567096 -0.4780455585829475 1.5999243531613347
H 0.9556325940664785 0.013921888972086231 -0.019014483162795064
H 1.5767754631002215 1.2491694611082547 1.118233723731399
H 5.101396824943005 -0.12514096899209848 -0.8157586792519543
H 5.718934266893371 2.1380365234905865 -2.027162420165679
H 4.075073324880316 2.1391707233692077 -2.667160805067075
H 6.080093022575617 -0.5631858462400605 -5.2355785133118475