15

C 1.6174153324407246 0.3949729527686153 -0.39317425889424235
O 2.9902084163986262 0.32214528853120983 -0.08580287087553448
N 3.268692476174029 -0.9117782455639293 0.46961476148518166
C 4.50028023839498 -1.0163102653970588 0.7617866636704457
C 5.0396818817071045 -2.2040944880121662 1.358447832056495
C 6.34273976639583 -2.317253697636777 1.6679066693332216
N 6.949624576600193 -3.3856375262527227 2.2303883857161586
H 1.4604496984310853 1.3772337022460373 -0.836220010085202
H 1.008134769327894 0.29145611178502834 0.5128895226832294
H 1.330212533533309 -0.37948565689763814 -1.1171612627466743
H 5.182857812907074 -0.1848188822045396 0.5528603924323754
H 4.346185814609018 -3.023473388599834 1.5621664967438798
H 7.008035833299157 -1.4775601232345656 1.4510916329666255
H 6.440074671196463 -4.2098918150542755 2.4637069121222943
H 7.930948287925231 -3.3781329380802614 2.4217133569747684