15

C 2.249035114101299 -1.162205686685044 -0.8442147733294504
O 2.4490447236747492 -0.4253201101071835 0.3692893750709077
N 2.8828211011486866 -1.256058640367299 1.366139075069682
C 1.9209434571307997 -1.7946502280902636 2.205348090219703
C 0.6079226421056447 -1.6003103339667155 2.1197665258523206
C 4.23343719196806 -1.2999172336074092 1.5985217328543238
N 5.154323674410336 -0.684053676283523 0.9765177896779423
H 1.9046235040142128 -0.43077902041949595 -1.565080753052361
H 1.5001480170669004 -1.9401336523894988 -0.7015857975101466
H 3.1858462751359404 -1.5997323084560908 -1.178294764085864
H 2.362187988033841 -2.4232942594930607 2.965731765927118
H 0.16742185405496918 -0.952425770640448 1.374323597537511
H -0.03865514659985867 -2.0895782101986886 2.827620605709127
H 4.48169818964987 -1.956601490027882 2.4273852156156352
H 4.763267010755302 -0.08365840400588256 0.25067848502194584