17

C 3.862522011634388 -0.7675263884437651 0.9485956531305031
O 3.7261027503664392 0.4273853271715211 1.7009864661647116
N 3.90380592934393 1.527959092281932 0.8560106775339988
C 2.645254277973005 2.2324026599637707 0.726198004910514
C 5.084075489822819 2.237144739302 1.1471649037358458
C 5.233718772503283 3.5224366009717594 0.39535298110869116
N 5.999173367517888 1.837244408598722 1.9169327421855313
H 3.716622256164186 -1.5799130222394444 1.665494048370491
H 4.8599983897562735 -0.8418258169860163 0.5036117000773178
H 3.1121873237706326 -0.8266802303782133 0.16193068260843466
H 1.8973287298807218 1.5420483525467863 0.33365572942177385
H 2.7615332556840544 3.04700632214444 0.012368236874054458
H 2.2887010036690385 2.6251204945736872 1.6825988831415741
H 4.5755323402245915 4.296042836931082 0.7855791057191648
H 5.010230260202163 3.4027080467182076 -0.6690893729285491
H 6.264847104863346 3.851241127732679 0.509130792894952
H 5.721263104814261 0.9670101500497579 2.3823947695851366