16

C 1.3132959408184735 -0.4481367849027285 0.08708463973159815
O 2.7100134019919624 -0.43087830207275274 -0.14975160511910154
N 3.059545759724453 0.7602171917336893 -0.7393227329076061
C 4.300873356596659 0.8411233116866172 -0.9940503327098525
C 4.815597539221574 2.0968018377000677 -1.630176070450819
C 5.5917292384921655 1.7804461849827817 -2.899465961377207
O 3.7907926443377233 3.003446847558682 -1.9132297967991025
H 1.1043942490636043 -1.4011557168091382 0.5552975204985383
H 0.7581685588122477 -0.3541027279038483 -0.8477962811855967
H 1.0277971135660613 0.36232592824397386 0.7602260257482182
H 4.996486831147069 0.039212318305538306 -0.7495278680097481
H 5.5185768039336 2.54736173156673 -0.913339897711521
H 4.944834005074296 1.3008021534818528 -3.630618599954893
H 6.436506895894099 1.12301964433034 -2.6981897804339012
H 5.966758350518874 2.7108849549640386 -3.331910151551359
H 2.9760179941019906 2.636178744612071 -1.5336550838699547