14

C 2.0877456906918828 0.6891585234704247 0.19751121662835155
O 3.4345212901164364 0.23462132561820898 0.12276516417057426
N 3.5178902731460826 -1.0495555251707072 0.5594556965117117
C 4.7031418173289765 -1.508087588717272 0.5064595356440299
C 4.966817672301829 -2.8896744919758577 0.952899372049904
C 3.817842988610381 -3.720512757222079 1.4615706228212502
O 6.093696788471959 -3.309384176572272 0.8968791862265683
H 2.106766304351331 1.7169122539450636 -0.16272454104946385
H 1.7397757274561563 0.671828863314454 1.2399563117490053
H 1.4404049051867576 0.07741170641233636 -0.42492827802255717
H 5.541735124539064 -0.9161593981793524 0.1461102128549566
H 3.0488886379105455 -3.806669607810008 0.6895215417047302
H 3.3443355009711624 -3.224507565532788 2.3123557681356877
H 4.183593477696267 -4.6982598829066315 1.7428093435089766