14

C 2.1946868448907337 -1.0944221748459915 -0.7438846319042297
O 2.393083499559189 0.19572822724099948 -0.18619295800717592
N 2.8281127671424833 1.086756000714087 -1.1378510530442842
C 1.883251751900964 1.8077017371282356 -1.8519975260649335
C 0.5607285514302789 1.7201233778697052 -1.6927718838342662
C 4.1729543626995005 1.3126799773898346 -1.199444464685109
O 4.695445722259902 2.1170091391264925 -1.93006502567319
H 1.7883001493430617 -1.7052780833624646 0.05984107238498103
H 3.146969714056677 -1.5226487610795298 -1.0819511190546052
H 1.4942801679209552 -1.0628546211111196 -1.5804431510195909
H 2.3462041918889947 2.469808363463792 -2.564356811951583
H 0.11849711442787711 1.0593299786352017 -0.9587658891799387
H -0.08271977881472675 2.3235260240108557 -2.301925068910454
H 4.707452263312861 0.6746111921514577 -0.48416604829274495