15

C 3.2354518953233065 -0.7821409581186807 -0.6016183160083824
O 4.273290682787898 0.16738897070496073 -0.6546275337577363
N 4.078281599854294 1.1067689446096678 0.34206449384082926
C 4.999602140132261 1.9812402350428868 0.32050780281444147
N 4.967303748747195 3.0856107706716718 1.1658036180169535
C 4.397021630447574 2.960677912733017 2.481458327162458
C 5.859048468909554 3.132127886405973 2.310954759231046
H 3.43629724568935 -1.4925264372480662 -1.4074423589267704
H 2.256430274723055 -0.3194104188855591 -0.7459008318738568
H 3.238871627122499 -1.3180490227071764 0.3605980862245474
H 5.816204380503557 1.950796362788668 -0.39216699895870977
H 4.033166246440496 1.9752570346175529 2.7699398122121726
H 3.782305136277773 3.7951073641705984 2.8068065778542093
H 6.481560466577425 2.2726245416861786 2.4984080044050505
H 6.321277995061184 4.1019066506569155 2.495729148071065