15

C 1.6970296739880815 0.07258123621030095 0.09019224685840098
O 2.6669013906044285 0.9742837133573177 -0.4124758279785393
N 3.2871729977078528 1.6224946286808155 0.6439053079401504
C 4.667367491550953 1.3643036483074216 0.7277688312002355
N 5.292639727208095 0.45458313007135526 0.10107207681525361
C 5.390317089460976 2.2100454491128736 1.693350191401554
C 4.832679578247325 2.9816820202537557 2.623626030079961
H 1.268332098511631 -0.42022733174117755 -0.7866816090557933
H 0.9132015314027843 0.6048586656979625 0.6335195469397236
H 2.156947417649778 -0.677893151851632 0.7425869552190708
H 3.081646306299813 2.6110896712677927 0.5803602120431115
H 4.653431839496942 -0.019369588213925187 -0.534024225654169
H 6.468901112909641 2.1434549133460297 1.5854760898323617
H 3.7684316063416614 3.0238360108399744 2.772977168991582
H 5.448858838548441 3.572087150032891 3.293542457837372