14

C 2.5757025229968566 1.204335854709759 0.5874712101517024
O 3.6902585719512775 0.4745172986953266 0.13439765980793084
N 3.2504355497775657 -0.47362156562958535 -0.7872660236814158
C 4.223320755217072 -1.1506997752138204 -1.2129449210091119
O 4.095498900002736 -2.1395736443429083 -2.1143967056341904
C 2.8499057927475198 -2.434777170005376 -2.607718992250019
C 2.697482342408034 -3.402849876814815 -3.493190892772874
H 2.973230719796844 1.9320652585823093 1.3030351880790672
H 1.8445508646533695 0.5600271417196991 1.0834800691231643
H 2.0909646307302565 1.7314681598243473 -0.23769739881857282
H 5.258671311793113 -1.0126258777163517 -0.9040130126319657
H 2.042752978063579 -1.8323784789984185 -2.2194543204563884
H 3.5386884969069143 -3.98552750645677 -3.854520500471379
H 1.7110423551905594 -3.629074530139517 -3.8733279183056433