16

N 0.7613137429643346 0.09139657187455331 0.07728643619848405
C 2.1876079999690825 0.07441036719176707 0.18509929735080968
C 3.112496208175604 -0.8726291931053206 -0.5278682847340135
C 2.5455075333033594 -1.603688164822029 -1.7113360340288908
O 1.8815398463625765 -0.6265533912999636 -2.5014612698053527
C 2.496136809500794 0.6361756758703565 -2.290534631165588
C 3.068104235860546 0.5858770645245635 -0.894273202557857
H 0.3467677530141268 -0.5872659495174188 0.7095623940362632
H 0.4699122502033779 -0.16503262015940742 -0.8660651247505714
H 2.5174214241902018 0.3458410458334761 1.1815630965669977
H 3.9643764439236255 -1.3052369085467466 -0.011527625480904758
H 1.8017342135420233 -2.3618167840946818 -1.4548834252382312
H 3.3433583621239094 -2.096882233968841 -2.2852816573522134
H 1.7298625851821523 1.3922857561199595 -2.4307668551069614
H 3.2956111730788447 0.8116956409056473 -3.0243857135800623
H 3.8799011454684695 1.2694970442078906 -0.6629922324054208