14

N 0.8651929795982826 -0.1256987173039205 -0.383078221535225
C 2.255621887384507 0.014284654369735587 -0.09142240415847677
C 3.430152299234959 -0.8283107744096835 -0.7074582178715291
O 4.271664956044902 0.31485098378143106 -0.4269311189656316
C 3.109916253449572 1.0804706648643243 -0.8285754008969779
C 2.9432432249999434 0.6460398946032885 -2.2901475173557944
C 3.1713070085012935 -0.6588051108209079 -2.2013061650272556
H 0.42756230938845485 -0.840082112582851 0.18180570843854146
H 0.7193986423567839 -0.3309261921407901 -1.3646459922738186
H 2.398781834658959 0.10242612950195719 0.9895287514258999
H 3.7918811234466085 -1.7802761532726996 -0.3190236785427786
H 3.1304265284828774 2.1339078270445184 -0.5595926929679681
H 2.713595205319704 1.2724970002184635 -3.1354203807301806
H 3.1752060549002232 -1.4272297125505797 -2.9658166882318313