16

N 0.9491832357195628 0.506697167417578 0.07958899431434524
C 2.319592349884938 0.08515211880975916 0.12241631622110746
C 2.8803508511398133 -0.8731674848881622 -0.9046464860876344
C 3.248361757409605 0.5904576524379407 -0.9320247253221947
C 2.855224773566553 -0.028596856632196268 1.5059689755497405
C 2.3162519971027993 0.7350499802189421 2.6157308115723157
O 2.0030770069208463 -0.6419748888621636 2.4617806528584496
H 0.6494971276917765 0.7083524252920201 -0.8638721222930276
H 0.35105698770241833 -0.22632489277561635 0.4476891875787309
H 2.199144176291564 -1.2308628745819763 -1.6722740350238792
H 3.6303246133325855 -1.5872443280428898 -0.5990464575039027
H 4.249354959247503 0.8758071437133861 -0.6367853782404755
H 2.8215111029551747 1.2052290203024418 -1.7139050258744433
H 3.891041663874716 -0.36218953943270144 1.5548432419362435
H 1.4960070317729521 1.424472610372675 2.4282822842901
H 2.9494638182949866 0.9720969536033145 3.4656785457257313