18

N 0.9045099298050006 0.6741242236941383 -0.5224500091724741
C 2.250935131447228 0.30781415948966806 -0.2155221150288182
C 2.9667555209349206 -0.8926206212795629 -0.776686155377753
C 3.32278090975489 0.48924786454469854 -1.238798314664182
C 4.614510334589506 1.1651787977061596 -0.8853306167081547
C 4.50676931552263 2.6828175834571364 -0.9386708755060752
O 3.5552644769798696 3.198934559830742 -0.04055421212334147
H 0.24398826082037878 0.13306247498505228 0.011915058185487735
H 0.7037271520205112 0.5218618403878055 -1.4999755673747837
H 2.5313391859034855 0.580527748784332 0.79664045027815
H 2.414788487157189 -1.5292980420236375 -1.4639316458158709
H 3.6683549579656063 -1.425130859846802 -0.1384107405171238
H 2.9548265854090383 0.7410730269387705 -2.232999838569291
H 5.414597088746214 0.8386931247139588 -1.5690720323384393
H 4.919958213956641 0.8629083484854615 0.12708236517383725
H 4.273663772653252 2.985344631447369 -1.9753968590342497
H 5.459429244654138 3.135910007978976 -0.6798530183430722
H 2.6967614001207307 2.812425108600744 -0.24537780246403496