15

N 1.3128117527222976 -0.08324008120914975 0.3514046402198337
C 2.689868131200547 0.008633011474393638 -0.020545078060160545
C 3.256503849844733 -0.5627007456779566 -1.2833459097000128
C 3.093664888228826 0.9278886165447278 -1.1374302900204512
C 4.2504086287782314 1.8081254257803385 -0.9906336588725893
N 5.4323916931507945 1.3545543937825848 -1.0120900510431796
O 6.375160155792109 2.3538778782872183 -0.7968329391490074
H 1.1225338232527193 -0.9879820417871927 0.7602115396907162
H 0.7117093829978333 0.012573401000858641 -0.4530731618657391
H 3.36641460911497 0.014315942735433419 0.8343553631088375
H 2.5664038828724154 -1.0639228128138083 -1.9513994659535858
H 4.270878089206601 -0.9513130306739436 -1.2905203440567756
H 2.2593532318894662 1.3756660312288216 -1.6647150287108659
H 4.082228211341128 2.882214456978327 -0.8207060641827325
H 7.205048940081932 1.8823593186790981 -0.8659105026787987