14

N 1.0944024454145713 -0.041374806084115416 -0.09420732687443963
C 2.5294911765573374 -0.11076627299123615 -0.08914792877672785
C 3.3368325812700204 -0.7913697317981255 -1.1429638646587854
C 3.2895891438162645 0.7294030977125193 -1.0754449031785305
C 4.460165024063897 1.5085522710743582 -0.6539659201225191
O 5.2209305115013045 0.8770263504968707 0.2692198088525978
O 4.747144823695479 2.598434092768868 -1.0736727188678008
H 0.7013137532821544 -0.904186061199423 0.24483331786760398
H 0.7477609445597688 0.11880500281291227 -1.0237123611211083
H 2.9451928961983427 -0.13372418578254852 0.9188641308248005
H 2.81300479431893 -1.238655374286762 -1.9753755290828001
H 4.264023861449007 -1.2674323706239166 -0.8597032377733543
H 2.7007640017031798 1.240307270762457 -1.823857058593204
H 5.953048752005105 1.476941351114827 0.47077188526032926