14

N 0.7476472503258695 -0.21398919881154477 -0.609617951099381
C 2.102850546341053 -0.23635143482832116 -0.14934605478704827
C 3.2600517489155263 -0.8362291305345864 -0.9151896244073979
C 3.1017402702531593 0.6468682794111299 -0.7770379788317705
O 3.973393582017786 1.3385187086454895 0.10110799452401034
C 4.944297257661581 2.0405499640344917 -0.47671489247602594
O 5.130851293466015 2.1557409135671786 -1.6445182527008597
H 0.34513045570988227 -1.1444884063772973 -0.5775400545237622
H 0.687664717967418 0.11870873135209316 -1.5651955922940826
H 2.1897018519908764 -0.31755394016093835 0.9324907923667065
H 3.073431005685566 -1.254795385389041 -1.8951840427171243
H 4.050773647188408 -1.314172525189691 -0.34410328940551005
H 2.837529445070521 1.2193997613254708 -1.6555313762614896
H 5.552426580138123 2.5214912803221505 0.30915277851006284