18

N 1.2941687898685454 -0.08907993722981283 -0.3122186106690988
C 2.6821572298034777 0.08747585931746293 0.04294163593797549
C 3.081067030138104 1.2286026994450367 0.9808860714280467
C 4.4488023174182185 0.7983657886659108 1.554048911310356
C 4.601833596601996 -0.7005879463213748 1.217187142360911
C 3.223420392520532 -1.1298983942990075 0.7718286758486567
O 3.2377902750715712 -2.29355770657515 -0.021168401444421028
H 0.980457677312418 0.6053338745384811 -0.9725599973705876
H 0.6956641418926605 -0.015124389429562193 0.5122395885812456
H 3.2553188201741245 0.16604729671550117 -0.8872259066126914
H 2.339279102642765 1.316612159242461 1.7769967290040394
H 3.123335472285666 2.1987412141043747 0.4772631505984049
H 4.490773849917676 0.9670895545865266 2.6368380612303133
H 5.26599033844852 1.3790880736119602 1.1255334315031833
H 4.993825237703284 -1.290748184768033 2.0471527924288777
H 5.290342098794169 -0.840276671845042 0.3682965436453468
H 2.5891416404381267 -1.291712912098276 1.6658829909866089
H 2.3847727285989393 -2.3109224430857336 -0.4708526727636477