16

N 0.9880210706908206 -0.002629603632623836 0.2868141108318777
C 2.412836003494679 -0.10909543318249253 0.05584228018250101
C 2.9662194779638305 -1.3045828863138602 -0.6933369905405711
C 3.989538701669887 -0.9689581746411514 -1.4607736142855912
C 4.253086194217534 0.5089344421513006 -1.380227429244527
C 2.935583939060932 1.0500972008297869 -0.8249453700124006
O 2.028789304051126 1.3470434475384734 -1.8644680716592228
H 0.6130350656481932 -0.8517231967894078 0.6789608866400748
H 0.5060074025561078 0.1927595220916706 -0.5826799406881883
H 2.9214278419299773 -0.04828398902462195 1.0278701493194515
H 2.58863489442483 -2.3166276072123706 -0.5415822624662433
H 4.59312802906379 -1.65151483299582 -2.0583063498159286
H 4.504561308432262 0.9860790737760399 -2.335388677189275
H 5.089434858121867 0.7132783126603115 -0.6890138708391781
H 3.0420137760963657 1.9776596017572226 -0.25562320411914247
H 2.0534769923066394 0.6017016364538252 -2.485320049596568