16

N 0.9642431128724754 -0.03640708238612454 -0.008032222268389604
C 2.4244302741645605 -0.13507690646684908 -0.05506956824516014
C 2.9552973908007725 -1.3512529442792054 -0.8384435501340143
C 3.2750160667487953 -0.7788698482615597 -2.189851540438595
C 3.2544782288160503 0.5550030252213333 -2.176123100742118
C 2.977192588637264 1.091888890919519 -0.8001419857711015
O 4.155419134720338 1.629455320116946 -0.2218235821481844
H 0.5752349828640383 -0.8409404141413687 0.47932527061063246
H 0.5896234981915967 -0.05663277374244553 -0.9499540738835306
H 2.784188675222026 -0.12019661314338971 0.9742174980357208
H 2.2015151479624007 -2.146335999631701 -0.8938578238896351
H 3.8441425791100174 -1.8011292469100155 -0.3934021593536389
H 3.5085724481336373 -1.3839084188768929 -3.0540526580638994
H 3.478695565362017 1.1984779641220953 -3.021292799396103
H 2.2485744147379174 1.8958979381787955 -0.7750668918103464
H 4.890340980179725 1.0658920074046656 -0.46841124159888575