13

N 1.14440987881374 -0.23528548330000162 -0.19199560389681747
C 2.5086738851921986 -0.017682028407802024 -0.03220362182128858
C 3.2949923483907484 1.109200717112385 -0.05971330313220921
C 4.644526822848597 0.6858339541799878 0.04469130742560998
C 4.656455067206836 -0.673199318197075 0.1491900986659268
N 3.34909156932518 -1.076539268051261 0.0743988686605506
O 2.9137140850528374 -2.367586592004225 0.20837699046409452
H 0.6221843969769273 0.633712358944176 -0.22032277137612008
H 0.7543572849417398 -0.8486083789862232 0.5053987823540311
H 2.9360957611126794 2.129966699733416 -0.15869221631079292
H 5.509848641336518 1.3271366880923696 0.06502075208892348
H 5.44953940024241 -1.3998023298538211 0.28839216987360844
H 2.7399064028465414 -2.6709310661172214 -0.6861530442201066