18

N 1.082570688842182 0.12523541652506173 0.05561432080965083
C 2.523811922411139 -0.0027276562367627715 -0.06422980121704976
C 3.034751418035372 -1.409951454215006 -0.4126802663908916
C 2.674056670301897 -1.7652079378069563 -1.8493731915674705
C 3.1243700656973536 -0.6665058896593339 -2.7870680692850143
O 2.582360728184261 0.5839367915619925 -2.4128893279794488
C 3.0186994524893005 0.9742309954740935 -1.1260691215105976
H 0.6979825636483696 -0.618278584024487 0.6237563258950504
H 0.6571113614679412 0.06832487248491637 -0.8577855924783215
H 2.9719761826616535 0.2993427713693198 0.8938552143090541
H 2.6195518073173436 -2.1399562600752797 0.28291753853311086
H 4.122567675469272 -1.4403625209069109 -0.2910324101441185
H 1.5936832310015214 -1.9060483622228745 -1.9510609852761502
H 3.1472791606693216 -2.718899396687561 -2.1413712926025923
H 2.783211487738946 -0.8404831598377994 -3.8096588076068034
H 4.226682018372643 -0.6055380522804429 -2.8001214375361054
H 2.606324273506668 1.962503673748183 -0.9375850887750488
H 4.109533786647459 1.0245955402258113 -1.0992509904265748