15

N 1.1466716839313877 0.2617381028217672 0.5283406489819634
C 2.349803110179807 0.04025386619445266 0.1594251878172111
C 3.0223528554361208 -1.2926399885259783 -0.03911198238489285
C 4.097605475019053 -1.25030503952977 -1.1252955984648496
C 4.912850020202567 0.010059449167955776 -0.9805650547601336
O 4.06982233624702 1.1345524106882756 -1.0422740773272405
N 3.213582632168396 1.1287282998319732 0.08999275395851697
H 0.6545240946456532 -0.6122017241419745 0.686814323503224
H 2.2574555365462583 -2.0419964687155407 -0.26320700810425707
H 3.472729710054429 -1.5563327922518222 0.9148033266308377
H 3.6280816910818783 -1.2470200281146893 -2.1139799731065265
H 4.729451116047059 -2.138699366695484 -1.0653395003499846
H 5.622869271407601 0.13464028210918924 -1.8082628307167294
H 5.474888440695204 0.020234853745256364 -0.03089135193712289
H 2.715965185197909 2.0023136503453527 0.06829242638119236