13

N 1.1153716723370324 -0.24615530715931483 0.5650809078416815
C 2.28197651512177 -0.045341563237679516 0.13573986177239458
C 3.0639925981192877 1.2319150201152564 -0.09997297288747754
C 4.425685853741448 0.7875127119044217 -0.6370140112949815
C 4.365504757337343 -0.7292698871956367 -0.6716440436469525
O 5.22577655532522 -1.4855241070860241 -1.0275002410383258
N 3.1107042959345765 -1.0912564552752981 -0.21930478505262294
H 0.6506626101507033 0.6387159868528618 0.7671938527532464
H 3.133420780056737 1.787505412292484 0.8334725796550114
H 2.512736216195905 1.8629440442891805 -0.8090983727299983
H 5.254693468358599 1.085278883537389 0.0022025048799201945
H 4.6426826214758234 1.1534525068180077 -1.63729408407788
H 2.818118374098851 -2.053388921495499 -0.15965773463384816