12

N 1.07271319631971 -0.19096442078177278 -0.14960406222051692
C 2.4329120090763494 0.030566525653370397 0.009906693658618727
C 3.211808430676755 1.129245762087125 0.10379412023982079
C 4.574753675153938 0.6469722577235847 0.10423877388315544
C 4.477981345353777 -0.6985215128314212 0.03199565904191921
O 5.349272061554502 -1.7123714965239902 0.022076716575534297
O 3.1974240518727775 -1.101903020673873 -0.03794321916244065
H 0.5410712161335578 0.6548828260602875 -0.07646061897512786
H 0.7083801232235478 -0.8896550230536691 0.485066868255931
H 2.8832008686501474 2.1476954606712804 0.1649211666201898
H 5.474797296659561 1.2334073611432101 0.16665698070145094
H 6.240569723066809 -1.3561683479263724 0.14493866002455472