17

N 0.9676920858119793 -0.06540083028679669 -0.05304828737629622
C 2.3952023400632596 0.08132069204878728 0.06948292243540528
C 3.0901241186716297 1.104100453197675 1.0113268170179341
C 4.161570754002852 0.045920704696188565 1.3205622708510578
N 5.3576365138752085 0.2246425185207853 0.5208352569421528
C 3.145370502030797 -1.0142050754584544 0.8243680191206288
O 3.6949285234616367 -2.0980395709587 0.12344271708046621
H 0.5627524574696439 0.6694244942112184 -0.6188742363808621
H 0.525264541537236 -0.02996015083965625 0.8526768854752985
H 2.8158339025813763 0.16080305437179773 -0.9330656284593423
H 2.468443159632318 1.32840278167499 1.8849479930893247
H 3.4425534174612014 2.039736193751776 0.5754846842125474
H 4.459046187285752 -0.054107272955896686 2.360383009697628
H 5.1217265964227705 0.35723172038589107 -0.44780191069848485
H 5.906772285758533 -0.6321458017787843 0.558784699939612
H 2.534572907433457 -1.3591823812311734 1.671135592563364
H 2.9712628066343907 -2.6029073037374397 -0.25316156460875283