13

N 1.0273159216802312 -0.015967971239621 -0.10090029290405365
C 2.3743418800488727 0.07929862951502574 -0.10577150405539887
C 3.0938752505044276 1.2151425729908432 -0.08880814432994964
C 4.527283533500562 1.1075811176668893 -0.09567672912516416
N 5.208475947524859 0.021160352736284967 -0.11776060812904492
O 4.512924640611174 -1.1722494028788115 -0.11852736494450503
C 3.0896338160585644 -1.2297078055885386 -0.12150587457417358
H 0.4493054046114358 0.8056970660705212 -0.08260257606260056
H 0.5749479834941973 -0.9092094136305002 -0.09986479107957709
H 2.6305096266281294 2.198252660262617 -0.08184076464066493
H 5.138454688607221 1.9939595320717516 -0.08921325516742007
H 2.78559278957096 -1.8121039935210368 0.7600769653382689
H 2.770727527006859 -1.7945622574725468 -1.0041482879586707