17

N 0.9496608675565205 -0.018928362748475702 -0.0440732288394359
C 2.385536757680059 0.06830450288811844 -0.0458663794811774
C 3.1707945293940285 1.128676656280543 0.7697668134361002
C 4.236831078669397 0.034489041283750285 1.0322460478724065
O 5.213318184116832 -0.029831762543147566 0.01095870203346021
C 3.155836051193027 -1.012475432075347 0.7347668243346205
N 3.5818515368666968 -2.2633644734318503 0.18015188085648065
H 0.5195580072956448 0.694790878875034 -0.6191223540525091
H 0.5705743330056932 0.06900312863652808 0.8880976767463686
H 2.7332173389884593 0.08563318254012729 -1.0770158792946272
H 2.6435051587395018 1.3931587646981014 1.6943535003084513
H 3.5107865991140352 2.0356936075763885 0.26938654756923647
H 4.704238110823854 0.0065093271654894525 2.0252947143974467
H 5.792599837636838 0.7379268455987813 0.10339719543958475
H 2.611935220568042 -1.20893173325399 1.6675190693999133
H 4.205659651163436 -2.0913579023548783 -0.6082398971349038
H 2.7918120135507976 -2.795931629353904 -0.1533245324370795