18

N 0.9838434125736021 0.1452428134610611 0.27633558261890406
C 2.4300872514328846 0.0414320941646538 0.10840792255567874
C 2.9373153751870293 -1.3463388461821346 -0.318335145721873
C 2.5984117462398055 -1.6333321548343531 -1.768534993183871
O 3.1073316057217677 -0.6516440222065576 -2.631086589346344
C 2.5758011570337267 0.6205136620619611 -2.3381221297350896
C 2.903303210364003 1.067369070848848 -0.9167506085661706
H 0.6601071706062746 -0.5263614262301622 0.9681871855851661
H 0.5022207873100231 -0.07904909181620301 -0.589252159706574
H 2.872512500509009 0.28645599668059557 1.07012535678322
H 2.510418313520376 -2.1193566217952764 0.33186749146649525
H 4.0251414935788565 -1.3897929087089853 -0.20355183826806883
H 1.5014461713651375 -1.7147813546289783 -1.9029467707287464
H 3.0265609511619562 -2.580651782795651 -2.090933951519788
H 1.4868775550935955 0.6231413176315533 -2.5000064412815406
H 3.00844976208018 1.3184772632774413 -3.0727179153058963
H 2.453181162008003 2.033298702571052 -0.7153811226284309
H 3.994606206581064 1.174108877814175 -0.8441860616009741