14

N 1.100765466652858 0.10299940691201658 0.20156429954670527
C 2.442183158437207 0.0390131404213417 0.0642077856366105
C 3.2254834868981885 -1.0651912337141918 -0.03136784661533872
C 4.610370254469946 -0.6818302863731701 -0.16669235230533802
O 5.575171600697326 -1.4112491508911618 -0.28209456565032676
C 4.6840542704439585 0.8492656312678112 -0.1612673199092725
C 3.2362270708734386 1.3118148433817851 -0.0013896659897092275
H 0.5469472061493748 -0.7254911408327294 0.24354258213922908
H 0.6338051524284328 0.9910757516434757 0.26048305354456197
H 2.8838103443744503 -2.0897742478375063 -0.01723767613469311
H 5.143630858282024 1.1898575241528948 -1.0859993402242085
H 5.322917763161046 1.1692126932486206 0.6676366326628884
H 2.8997909412205467 1.9334066927981135 -0.8424392246218889
H 3.0790644528338875 1.9009321213019996 0.9076745150175796