12

N 1.1165227027886757 0.11622655766163761 -0.04889636220465456
C 2.4461039514740217 -0.004147752162723974 -0.050900389418571806
C 3.2203228406921807 -1.1140375173929637 -0.052050173222593754
C 4.610606042624804 -0.6780685718803778 -0.05022567522651364
O 5.631680818329759 -1.3375237541923413 -0.04879789066381175
C 4.576454229444513 0.842985827691628 -0.04959968167284539
C 3.3060660459002587 1.224366497878653 -0.054623474438370005
H 0.5132125567756978 -0.6867353038702371 -0.048310312085741595
H 0.6786949394081989 1.0274965933915419 -0.04712452815445512
H 2.9159521817534984 -2.1509608025894176 -0.04662672693674979
H 5.471509921732133 1.462126595805738 -0.050674464768292946
H 2.9083582654991873 2.2311652615947475 -0.052240274172428575