16

N 0.9309800501555084 -0.02247945505607517 -0.09805312070087378
C 2.3968309397716214 -0.03518683243665148 -0.11493795605073073
C 2.933904217408524 -1.3012993016521346 0.5556749365412363
C 3.2430979012213643 -0.9247405799884858 2.008671623547776
O 4.374001371717072 -1.5698792319737813 2.5508015578555194
C 3.357611467317755 0.5749097517678486 1.9389554698166023
C 2.917497477985868 1.0507339677308718 0.7876590968669004
H 0.5760078687715824 -0.6786050037075504 -0.7889053744124187
H 0.5837905730420638 0.8910960455551429 -0.3602197220022971
H 2.8009214741238786 0.07811244955665965 -1.1324747202558678
H 3.865500351813741 -1.611503330333865 0.08104075748192771
H 2.2325405740695334 -2.1384644927144287 0.4810063512915251
H 2.4295535615891395 -1.2068093185143765 2.683381011241324
H 5.143580304668197 -1.3013438899574623 2.0350753191806064
H 3.7270635418555784 1.1604777302832052 2.7697865941072477
H 2.8799720595646354 2.106306344238715 0.5176405630573715