11

N 0.9708118709729014 -0.04412202241708418 0.20312153714978173
C 2.225304162804216 0.08081963770209087 0.10981186749723569
C 2.9854592412245635 1.3315539727923156 0.0402548623557315
C 4.309149825318523 1.296766409485245 -0.05609834609341554
O 5.00764057155102 0.13400237952406746 -0.09354641833135434
C 4.2643619247271305 -0.9930265149998968 -0.020881419920164915
N 3.0134399618819017 -1.0858039353974296 0.0673285413665438
H 0.5294439683166436 0.8773142015143075 0.21621972192107458
H 2.477755336800147 2.2831303007087476 0.05975677576605703
H 4.966536356650239 2.157344710978911 -0.11859926963647277
H 4.900311859849544 -1.8704697966002344 -0.05481909463443096