11

N 0.9576285215931583 0.021155958591518483 0.05994303000153985
C 2.287340323999794 -0.1274494237884925 0.05604181322026908
C 3.0920465539010515 -1.210519222391918 0.05513436390413122
C 4.46769182898583 -0.707063122948259 0.05439610815719729
O 5.492206575019897 -1.3025128264661487 0.0595826304454317
N 4.4312501595265825 0.7754637711891492 0.05630275907406509
C 3.19471131138215 1.0696100850605195 0.05575937620988301
H 0.34118200611326016 -0.7756160059800992 0.060517660945392494
H 0.5356473110238992 0.9326771749458825 0.059687562279640706
H 2.829631117128984 -2.262976709106657 0.05896906061770886
H 2.835888122276848 2.09556168551247 0.05138944874923251