15

N 1.0256046886756889 0.18049837412372516 -0.18559842798451356
C 2.43359419967148 0.09487610576160321 0.19295556249351214
C 3.160841235056856 1.3623604754018857 -0.24257362056943893
C 3.4674337718377752 1.2148863076379903 -1.7126708932495738
O 4.331252896822159 0.09949884304534996 -1.9489877675553242
N 3.958725142305137 -1.0788753574171226 -1.3844774002892717
C 3.077196472587218 -1.0801254600765506 -0.46956271505260955
H 0.5162727400945715 0.7515786519589523 0.48436953517159465
H 0.5893899196369198 -0.7348377683979743 -0.1884610852760564
H 2.5715073025290707 -0.047934612261376804 1.2781428565749424
H 4.091688946638239 1.469563515542647 0.3242272104002728
H 2.546756524445875 2.240901087559959 -0.05656385759420293
H 3.9909337453748686 2.0660097929163457 -2.1308712673397956
H 2.534519182174791 1.0558211956829926 -2.262284410219053
H 2.849509555414846 -2.0783593161087808 -0.09467259568795756