12

N 1.102285912259925 0.03078879748711321 0.08920276347415725
C 2.4384645810660444 -0.08110232293102981 0.07153460796815668
C 3.235521885790367 -1.1599743618602194 -0.02816341955325754
C 4.624959454459326 -0.7217740498722637 0.000281978400379114
O 5.647415582049376 -1.3320053772984932 -0.06192898839227537
O 4.634580715201583 0.6582767914526112 0.104291701567128
C 3.3123232259109514 1.1409345534358355 0.15172509696292302
H 0.5123314470923739 -0.7837832386613186 0.02968148523456527
H 0.649413392803194 0.9245927647629684 0.1572070542847699
H 2.967638029599601 -2.201885680975017 -0.10384326701915206
H 3.1256936997908205 1.8196462586733115 -0.6833855502279177
H 3.1408235707037235 1.6825501389470874 1.095863010443918