17

N 1.1235129577438376 0.13737426402848618 -0.04545110945738176
C 2.5503530980080584 0.033393612120261484 -0.06036319650333453
C 3.2984428005913964 -0.8903385968371941 -0.9788321714575416
N 2.580124178739317 -1.8109364253613198 -1.8014251854847634
C 3.314283321571165 0.6021373930983613 -1.2117831918819764
C 4.564684884604964 1.4073078868167446 -0.9748787495110548
O 4.3338574682827975 2.6728359309874827 -0.39111846997296407
H 0.6812756027112098 -0.6969293560637119 0.33270562724611585
H 0.7317744257763986 0.34097875261080396 -0.9544920496050013
H 2.994206277944843 0.19796053915957942 0.9097550491133777
H 4.221876025494337 -1.2993835516251802 -0.5782633578494403
H 2.858834565601309 -1.757437344800722 -2.7786384775028505
H 1.581296078159127 -1.6402292036851827 -1.7463805074680954
H 2.7034099226664483 0.9293228714425945 -2.055218868808712
H 5.123260950293593 1.5132881913023584 -1.9125896420206674
H 5.212257847058972 0.8778249395130149 -0.27372535017312627
H 3.672074232151653 3.1324953102140154 -0.9152811036375093