15

N 1.0056509167486367 0.0438846233678978 0.17269109883154418
C 2.4288444964391656 0.08868613244327903 0.02081243096845183
C 3.28420201217457 1.173955799599269 0.7487386308411138
N 4.068023601530437 0.09203109944282122 1.3229497124240681
C 3.213205699587355 -0.9760061604401807 0.815948691800784
C 5.145909389412872 0.0455468188206719 2.1258659784768192
O 5.636090391744565 -0.9744517792785806 2.5569695035345856
H 0.5412595727630592 0.758666587476293 -0.3706491194590078
H 0.719784937419563 0.1344122095764084 1.1356358043887085
H 2.6670928991247185 0.05945216354733944 -1.036212568490969
H 2.71435661107022 1.7514255961368892 1.4958982142488795
H 3.8496409581593034 1.86090807058484 0.11397241164880723
H 2.625366090898093 -1.4612464063630612 1.6005522621924373
H 3.736622209284462 -1.7372409992333284 0.24363000593291737
H 5.542346363283827 1.0492715407709252 2.3374026698274