17

N 0.9800682344270929 0.0041081317969060595 0.5641103134966873
C 2.3522666003922 0.027450511887985925 0.10078127727171018
C 3.2567764960144805 1.1428626823727333 0.6986183862842251
N 4.439731936292563 0.43169130398437494 1.175726251597262
C 3.930017933142764 -0.8358275239720907 1.6689514982629867
C 3.1005913151551012 -1.2740768371123983 0.4728608374210364
O 3.9459455535635524 -1.710350550234086 -0.5671442732943868
H 0.4781683171190591 0.8239588511809742 0.2478783214193208
H 0.9465788075540237 0.018973563617605854 1.5774990557335586
H 2.3304485070239904 0.08842394230420063 -0.9921944935930938
H 2.6980217332762773 1.6322400655251146 1.5089358308860956
H 3.529678386601434 1.9116299509048584 -0.028035841725124452
H 4.9739464751326965 0.9592313313376543 1.8434043562173466
H 3.298059827180148 -0.7326138721440034 2.5717469555954815
H 4.736890003265213 -1.5397116983261583 1.8902435357210423
H 2.403684072064499 -2.072589927069065 0.6881169216234193
H 4.674916895658298 -1.0747927694889943 -0.600350553995191