16

N 0.8754115592720865 -0.06726836928673927 0.19396783403967036
C 2.2904189988203147 0.09784635521966689 0.07354177999582387
C 3.079949166306463 1.205635682593323 0.7857728409963501
O 4.037130416904443 0.2599970458759628 1.2684641070334421
C 3.177883656207733 -0.8486599526207379 0.9135063601946742
C 3.8903371998698635 -1.9590420173300658 0.2318792994924056
C 3.7228859560308214 -3.2365164252978698 0.5442979694132577
H 0.3629137520955657 0.5193592039875304 -0.44623616392904103
H 0.5551261595827931 0.14294810057583643 1.129255946934422
H 2.567986201604307 0.04035879915583324 -0.9856977319506163
H 2.513017654327893 1.6742354850444416 1.614506779416787
H 3.5413963474925305 1.9978024779663226 0.17712651413123956
H 2.6406309149502443 -1.221440109583822 1.7898532056422438
H 4.566897771664361 -1.666412133651878 -0.5615690649420891
H 3.065680049665333 -3.546157894312788 1.3496073042481884
H 4.227599913487531 -4.026535776379993 -0.005681567998741277