16

N 0.9750090255231494 0.13341637285307514 0.18153077316415608
C 2.3743272132231605 -0.1357285561768887 -0.095607175853395
C 2.7583707928038845 -1.5797838593096836 -0.4704200227681858
O 2.8440469408261086 -1.6482329415647274 -1.8825914705998135
C 3.2339964983406886 -0.37888780220800916 -2.3425014315291053
C 2.1179261786602255 0.5654008084812581 -2.596962670146843
C 2.8839875109845883 0.6393187093657831 -1.3025239409548324
H 0.6650309002537685 -0.4055404031641297 0.9849621565440473
H 0.3926369049831544 -0.12361495494652479 -0.5943669097053417
H 2.9388243019153912 0.1815709999479981 0.7877548974248795
H 2.0110931102186256 -2.3099942854340876 -0.13474097417376815
H 3.725664365934524 -1.8364857347325387 -0.027329128438575077
H 4.148195456230656 -0.36557890963439693 -2.9186296567245527
H 1.115469254947568 0.1451726152725865 -2.6159841496454237
H 2.2721028524621274 1.3733656935319596 -3.3007329855956473
H 3.5042672932058756 1.505962238966582 -1.1379814782469533