13

N 0.8333388059975184 -0.03778405730870727 -0.18536200367960948
C 2.226762185978833 0.022433483722322477 -0.08512719277418532
C 3.076008247708536 1.0779111753840827 -0.09291221824886743
O 4.362463171000508 0.6557273296528315 -0.04769451760187792
C 4.337399816633156 -0.7001403993233413 -0.00357422499347093
C 3.0514080706632787 -1.1424047287588786 -0.02322999017654031
N 2.5344664240143784 -2.442313855611487 0.06821133016890017
H 0.3902862249037984 0.8666608631433375 -0.12909338580867086
H 0.43064015648346754 -0.6608920093687792 0.5040314150471499
H 2.915595472908455 2.1433364833855024 -0.13923768677731013
H 5.292038674229533 -1.1917600961926194 0.05360025594520333
H 3.2487357450747476 -3.1604632988693853 0.01176161909598639
H 1.8233124032679553 -2.6135391964301586 -0.6388077248327825