16

N 1.0367882532910753 -0.0448132210938766 -0.1983358383053832
C 2.436677722034144 0.003349325678235089 0.14209715533693937
C 2.9062081366716264 1.0703490468629897 1.1271521723657154
O 4.156339815241421 0.6313675799477141 1.6279985263088927
C 4.288668761571169 -0.7689455757204455 1.4051138467746171
C 2.9584085361612584 -1.252091790875222 0.8278217714069563
O 3.052137910399338 -2.4100581326891346 0.03261473284583592
H 0.7275156543682294 0.8132481820361236 -0.6280566748076905
H 0.47941490907042594 -0.1935956146849201 0.6335015778231041
H 3.010269571369718 0.1323989758750115 -0.7995113579228941
H 2.171302059292803 1.1628741564138143 1.9470587257657987
H 3.0405703471509313 2.0613395553160956 0.6791714771158798
H 4.5457999609162085 -1.2659611251955136 2.341031336096417
H 5.09189688194337 -0.9656981742378891 0.6836691679000977
H 2.266122388413461 -1.513216244296212 1.6406339955066347
H 3.4180476838212375 -2.167370811658118 -0.8131621458800968