16

N 0.9604921677483438 0.028682678938074007 -0.03504982636162508
C 2.3899474293810914 0.03940099168102446 0.05582483147019847
C 2.8343521349518035 0.14135256901320578 1.5011703467450146
O 4.23487360735351 0.0663278192494138 1.6951754633458724
C 3.2409204546560137 -0.7459980884069378 -0.9316202363216014
C 3.174469897186896 0.7541069490733623 -0.9904923805936127
O 4.2678644343753 1.546229197307672 -0.6838611475162728
H 0.5856262707298022 -0.9165488432011876 -0.0932747068527706
H 0.6139970879043635 0.5629014580208719 -0.8113620976920399
H 2.3140058497175375 -0.6150124045755694 2.096082973832603
H 2.517331632527478 1.1223405781537468 1.882818485486845
H 4.505831267474423 -0.8519192749514802 1.61339924266474
H 2.7274595011250815 -1.3211533817682806 -1.6955735217032615
H 4.171905981248003 -1.1831672091052312 -0.5904875841930571
H 2.6152291730922967 1.1805685361202705 -1.8152278518197702
H 4.641130658105637 1.2181267001243816 0.15254547373791974