13

N 0.8894301930963461 -0.06040326790351832 -0.09404943403939024
C 2.158792763099538 -0.02786336797446553 -0.09566068753938692
C 2.9502188614350673 1.2728519328410595 -0.10533910162910393
O 4.366064405227185 1.2011720120223561 -0.10292720044075804
C 4.9503804911419085 -0.02620810496962829 -0.08460936265919858
C 4.275288270959049 -1.1658356287973701 -0.07952945790801962
N 2.883396595278445 -1.1657624466320924 -0.07671086455077691
H 0.4926522971985708 0.8783399924311033 -0.10282330651379205
H 2.6417805242669625 1.8461481309678853 0.7725807907542092
H 2.6494298531189804 1.8322100351329933 -0.9914351830332336
H 6.032787139114215 0.02961604673570243 -0.08812258012801268
H 4.770727080903513 -2.128366886600053 -0.06870106715123889
H 2.359744579804461 -2.030964207152435 -0.06523656441282967