13

N 1.073907754620255 -0.04908695460926229 -0.10515599687501938
C 2.4413091561266755 0.10106062418749562 -0.01916842133745399
C 3.2556448031900205 1.1943087623967674 -0.03840676488648535
C 4.588864688847369 0.6757807420430973 -0.005247693801389822
N 5.740720716693856 1.45284038323932 -0.08102531103741765
C 4.4841961198864855 -0.6746566580753669 0.053855665432067636
O 3.1485123775127697 -1.0291088671561799 0.030998779418020563
H 0.5616972882734005 0.7588134275438799 0.18493067483601208
H 0.7438716920408256 -0.8925352553328196 0.3407024622290093
H 2.9542900649771417 2.229374236068473 -0.10099007106381028
H 5.67841846158094 2.326232357470578 0.423575296893952
H 6.580317331253314 0.9652168027731459 0.18445165278658118
H 5.1945569735654225 -1.4758568682093856 0.08561558183653832