12

N 0.913003676639423 0.11221728001803431 -0.03778329368425163
C 2.281814201409844 0.07745617947261248 -0.040509629026411684
C 3.1472642905650643 1.114840794505542 -0.027896881161056347
O 4.453219229471799 0.6233090574171335 -0.026867282253647703
C 4.347079183568535 -0.7046186248582046 -0.023827978345468098
O 5.487974999203181 -1.4001576109261429 -0.02354954873999614
C 3.0591592835907835 -1.124694579119963 -0.034150802418558286
H 0.414630428805921 0.9752449677207425 -0.03923622957382719
H 0.3826725305175581 -0.7421143949676487 -0.044956246225913654
H 3.056237929099802 2.1854948989748855 -0.028648178372502237
H 6.222034760924259 -0.7784742330704236 -0.015493985537955385
H 2.7144311268630337 -2.143678219862086 -0.028222487520686585