16

N 0.9772409015367512 -0.00832164779456547 0.14677763482518916
C 2.4111705070032428 0.08894872936219192 0.06293476567687134
C 2.7978343847445113 0.09269369714898944 -1.4079426667041426
O 4.179083800153502 0.007611940777776006 -1.6438283756310608
C 3.1598245404435703 1.1349482789446854 0.9264374878669263
O 3.962926562490736 0.11658715851085284 1.5328297739826664
C 3.181138757704224 -0.9188573298122346 0.9170550250658268
H 0.5202179663708892 0.7176932764930747 -0.38752893076942646
H 0.6460723290971819 0.05526830182872385 1.1027377700035395
H 2.3704635430457657 0.9875440632133908 -1.882770724138386
H 2.347017832100819 -0.780428705204685 -1.878253687486534
H 4.628015634029606 0.7478300613460739 -1.212713579487109
H 2.519683947677786 1.652890680631457 1.6522085502759423
H 3.765980684197421 1.8852185980481886 0.4036341125475815
H 2.55642527358066 -1.4478379949893339 1.6474052626457216
H 3.8134561298952265 -1.6297791149005163 0.3764595254826047