11

N 1.1917402979857574 -0.07165035493559727 0.294520174403469
C 2.4105438632605334 -0.10185294081005389 -0.0014083612568851656
N 3.2518964668533767 -1.1730374211875692 -0.25968767787322855
C 4.525433756971057 -0.7163948443913376 -0.5468997882413439
C 4.629478752804374 0.6202645858297181 -0.494509706291207
C 3.3086755161682975 1.1498249460254288 -0.15110001805705212
O 2.9409144032682493 2.284352064608243 -0.0008911310175985997
H 0.7811188774629112 -1.0033423559074812 0.34596289064342567
H 2.9819234398269914 -2.142282536807715 -0.24695457239527407
H 5.294246666382341 -1.4350240141330595 -0.7774204117926272
H 5.5111627049031595 1.2117212789786556 -0.6815982183922467