11

N 1.030109340247627 -0.007941473383184575 -0.04859411391929074
C 2.2782653423832735 -0.07655686382971343 0.10081858591570096
O 3.0211850666194184 1.134970730618571 0.13494547595917492
C 4.345142533068841 1.1017595610342514 0.294445921362059
C 5.025900584271191 -0.04313213108065895 0.41501002132502623
C 4.235839336922732 -1.2362781725796173 0.3648845497221282
N 2.9586569933819242 -1.259706456873413 0.2229054205238528
H 0.7194666837435806 0.9558107136246194 -0.12132601095079709
H 4.778472233261463 2.0923221624638595 0.3031971508533242
H 6.098405253873964 -0.055665409599263686 0.5376557917159009
H 4.730179947131441 -2.2055432539093753 0.4593252427779796