13

N 0.9908071485096779 0.0190833521140139 -0.0654558057426355
C 2.2584565676025257 -0.067491440722283 -0.06104279592006081
N 2.9902331208308697 -1.2336984681183956 -0.07500718590614369
C 4.370817038533994 -1.254244718758725 -0.07340332174513894
C 5.081036972984455 -0.136327567160581 -0.06238316208605074
C 4.372981332751026 1.170619210786357 -0.04560866744984016
O 2.9466550394522417 1.0847485001660562 -0.052627943082163016
H 0.5640646712113845 -0.902665511644028 -0.07678011565445522
H 2.4835791365405977 -2.0961444519386756 -0.07994623216188877
H 4.820569537327028 -2.2448022499820373 -0.07636102756707527
H 6.161540339127387 -0.14837635781022004 -0.05539414813276606
H 4.646078394852791 1.7707992063359848 -0.9205567255546355
H 4.64119239159318 1.7620778388941132 0.8335084706410958