13

N 0.9213386546871764 0.07911841460048986 -0.08974734715687097
C 2.1927488932210206 0.1125546243138702 -0.0330898215522306
N 2.9791590043874745 1.2452152837322146 -0.23289386085696556
O 4.202770299295208 1.2286439873722959 0.48093927538709125
C 5.01361620625318 0.2019711923648246 -0.043912215889067886
C 4.290236647868796 -1.1089303407305005 0.011992447290214174
C 2.9688953951005317 -1.1325809162605527 0.06725246626804343
H 0.5195164968113907 1.021241653228938 -0.1777497778972779
H 2.530909768464872 2.1134091707487945 0.03254270471794689
H 5.900553773934889 0.18692422643771595 0.5806506311417158
H 5.313564721231137 0.44363276122829826 -1.0823586028309287
H 4.8797688913486414 -2.0161731705082713 0.0011185222620788216
H 2.3833909567455542 -2.041388735955055 0.13404440804174717