18

N 2.7746901707710903 1.0993643330091951 0.10336260471346191
C 2.194629419318632 -0.16950287486720775 -0.2903303501693222
C 2.632588919249636 -1.2579228469086008 0.6498082398467062
C 2.6262933124848775 -2.6887594009153326 0.20665678583332936
C 3.934514673691018 -1.9740384764076975 0.4054261213127225
C 4.816596965303032 -2.3551144065142195 1.5469073686741428
O 5.62541342465868 -3.4777032460409254 1.2673404594233904
H 2.4583634218074573 1.843352157297925 -0.5109312346134733
H 3.7840331742253555 1.0630797492872504 0.028069741321256333
H 2.440907536459812 -0.4841215640253331 -1.3245602093623348
H 1.097887086867802 -0.07997116717789016 -0.24640847436029079
H 2.3882581709955897 -1.0709007646225925 1.689861965982552
H 2.307017438713644 -2.9068312607565026 -0.8095228104840336
H 2.338868344764537 -3.43272800355458 0.9373566212403049
H 4.467922486870536 -1.7009207742900934 -0.5011762909814926
H 4.195525820638987 -2.5329152821432586 2.4403965524051765
H 5.504803919396369 -1.5466496443995976 1.7950980350364436
H 5.054531417147995 -4.175728427313702 0.9387592286404152