10

N 0.9245491790277639 -0.06288888091215934 0.04124214002190185
C 2.080866007878716 0.004779290406690473 0.052602835908009335
C 3.4803037684133518 0.12975985017968686 0.04839841324090235
C 4.293736817993484 1.2195589382747765 0.05678935299447129
C 5.622085389431749 0.7248731336552482 0.06400079793322326
C 5.5086181162377725 -0.6296386613515382 0.05762152035115682
O 4.224199883467892 -1.0042041059018416 0.061305221928355434
H 3.9653252474962457 2.257268291487208 0.05342089714874537
H 6.537498866823761 1.2916966119318705 0.0650604791398759
H 6.238834112094616 -1.4265121051004706 0.06850200794195183