14

N 1.3047144775514468 -0.36633055486515254 0.8516103677243023
C 2.355021957648516 -0.15071288760971965 0.4371540743314351
C 3.7084641494764736 0.14697095068488916 -0.08099465666872019
C 4.363355384496026 1.3190130509126112 0.6898030514800088
C 5.546074322861964 0.6549531716439885 1.3979349163838133
C 5.204791198298553 -0.8213145562668811 1.3247574932885637
O 4.556160307208682 -0.9711276922305367 0.0701351708878492
H 3.6121023662341836 0.3486775147307258 -1.1455840972733098
H 3.656654297113229 1.7558135563149426 1.3957709743250173
H 4.671505532737237 2.106108163688702 0.003361534371476529
H 5.679467458872894 1.0062135870474864 2.4175029265576997
H 6.477865053393807 0.8476365031836595 0.8481785134686681
H 4.534562213444907 -1.1107773019413931 2.1364393506300026
H 6.071292334652038 -1.48922392687321 1.3194515311579638