12

N 0.9349055747564152 0.010061472944761656 0.043459038253275385
C 2.075720486282259 -0.03163896853972802 -0.0018976200681065048
C 3.4980515316309573 -0.11840297494098302 -0.052456129112052705
C 4.257142624694736 -1.2117871236083955 -0.05840385897387096
C 5.687800553052294 -0.7884879755954306 -0.04038583819322825
C 5.556241011808775 0.7154964281703372 -0.30181944866410015
O 4.175822513944246 1.0564797476645367 -0.06507593399767785
H 3.884638166341584 -2.2248589347765613 -0.03234275198623161
H 6.292779083419627 -1.2786175010725913 -0.8112866105403882
H 6.153938008242299 -1.0112891381282105 0.925047365145706
H 5.776533660351148 0.9701475895524957 -1.3493112880651756
H 6.170529298424398 1.338944056717513 0.3430906532434943