13

N 3.309381590963444 0.5749488192485527 -0.727276595128316
C 2.2222809255956397 -0.2847390338409195 -0.28873950687690125
C 2.730936200120666 -1.3262600463474474 0.6488973561205514
C 3.8702651470161684 -1.453133481233425 1.363191581413608
C 3.683470873145218 -2.681132660000977 2.039098814037943
N 2.543140640010582 -3.2295534738096494 1.7620002628995146
O 1.9328118626195805 -2.3714038865746945 0.8734461029763857
H 2.9558966121542847 1.375602021953499 -1.2203804606852962
H 3.927179132385994 0.07115136975626099 -1.3556220057532515
H 1.6638896347364844 -0.7872658017214443 -1.0886810696119338
H 1.4926549914550988 0.3403483495559529 0.2547652994185344
H 4.702764951311093 -0.7709165974068385 1.3977969423369694
H 4.350274474651518 -3.1826804745960007 2.7298183982949302