9

N 0.9133021559736166 -0.05723732472393487 0.024464232909258105
C 2.0584968741421377 0.02671654353739103 0.020265148290348298
C 3.467455370189812 0.15478747696308492 0.03310318013355657
C 4.277003131560559 1.2417413174858367 0.0292375691936114
C 5.572880366227348 0.6699258017430405 0.03649657288257472
N 5.526910413347283 -0.628211770292587 0.03689941891596108
O 4.203093445363218 -0.9716860319802099 0.035523521930138746
H 3.9969469321399993 2.2746306095360174 0.028425183807573272
H 6.536515244326915 1.1640994571557777 0.03382817832368526