10

N 0.900245680732423 0.035405508946278155 -0.09110819795114028
C 2.0526585282603143 0.012019010967565875 -0.08882980539473993
C 3.4587306993237275 -0.04468750789210826 -0.08318580863496863
C 4.303859670738033 1.028332625508806 -0.08165127909697506
O 5.582903593221319 0.6036394859866953 -0.07860253712235131
C 5.56120334401204 -0.7498610321589685 -0.08268230491621617
C 4.290661015057781 -1.2116509940782036 -0.08322137929884582
H 4.134817299585874 2.0900921206094663 -0.08893386060596113
H 6.527999497664217 -1.2339059481641677 -0.07902991713267515
H 3.9680811208276348 -2.2408079375540293 -0.08244236672409312