18

N 2.6702628823647316 -1.384417108998197 0.27596173064460783
C 2.4037506703318483 0.0355376305345261 0.09126305466697245
C 2.89318645761237 0.8425897395736849 1.2684969590725064
C 2.694608577038312 2.34615519602733 1.1301684286236082
C 2.768592411492815 2.8065328567735293 2.580855464826611
O 2.2620077954835067 1.7406229124808632 3.3670199622329413
C 2.1530748087282348 0.5668130769386227 2.5736171538174553
H 2.4256523738457187 -1.9004958241961487 -0.5563721640429437
H 2.1110776929764707 -1.7582084422803113 1.0198943684185235
H 1.332278739599359 0.2627937925906891 -0.06905251853976528
H 2.9314382682685505 0.3575379599420023 -0.8110504021902648
H 3.965982623465697 0.628193638026919 1.4147566367843398
H 1.6950020216998418 2.5543339072491222 0.7205892055250025
H 3.436015319779953 2.8300034298806658 0.4924491599039615
H 2.1824466344305855 3.7064127349813347 2.7785847472813474
H 3.815224766749801 3.012922176050753 2.8741762888781457
H 1.0948987587032657 0.35508046947102684 2.3689219839680504
H 2.5749384139932836 -0.2674318142117458 3.1391852574431303