12

N 0.9028453364923961 0.07940389040832345 -0.021186787150050724
C 2.0562527985451657 0.02392789309220162 -0.030923484388668605
C 3.470063513331491 0.005810900525570612 -0.04003804253151056
C 4.249974106487878 -1.0707534760466904 -0.10884439687970601
C 5.682426450291352 -0.6402570495888893 -0.0906045773699932
O 5.650645043413397 0.7738908350879317 -0.010744059542844957
C 4.317243898553386 1.2444036228028932 0.02827666815385039
H 3.92807459599348 -2.1021810175733813 -0.16825284475715313
H 6.212299556955844 -0.9548861116930578 -1.0078368345189903
H 6.22510784311632 -1.0622019517135943 0.7601858914489249
H 4.126379289269389 1.9223806053423171 -0.8179079902373912
H 4.140075778746296 1.8040513443188189 0.957298749551502