9

N 0.9232881955766281 0.08837634834428441 -0.09430915802085893
C 2.0765871750702156 0.0716047400991484 -0.09024544446261186
C 3.491287364813541 -0.00972784901421459 -0.08945345436256655
N 4.221875342826234 1.0847736088087996 -0.09228129690876266
O 5.516102079703993 0.6521639677048711 -0.09656738909315976
C 5.549303659632887 -0.6781222197045675 -0.08794484147496476
C 4.296985720691968 -1.185378484270244 -0.09483437913878578
H 6.528199783570017 -1.126301836793124 -0.0872742388075292
H 3.9700495318819513 -2.202764936502337 -0.09066733791053662