13

N 1.343325399362729 0.6379674715133553 0.044589614883524885
C 2.3221456802226457 -0.4296847753786062 -0.07885398522367126
C 2.8402010654872147 -0.48943072124314274 -1.4699682778187773
C 2.776010509405595 0.3281686499223523 -2.5468541903654707
N 3.4514317711703795 -0.2636367412285592 -3.60251012645362
C 3.875126668569611 -1.3726499496082971 -3.1196236796103443
O 3.5412067920261885 -1.5937112827554625 -1.8325698268999777
H 1.096583113586321 0.7866364916024069 1.0144412853075413
H 0.4982360670643692 0.39929124597981 -0.45803804400922954
H 1.954376401371168 -1.4278412645763416 0.20372352594167284
H 3.1536702478624727 -0.20331094239936331 0.5997842799596842
H 2.300607383867011 1.2926954829229924 -2.6207430889493812
H 4.451087348272373 -2.1363440227416453 -3.6137871964602115