17

N 1.555744749079833 -1.1317601542459257 -0.6675090792112973
C 2.0370801330975836 -0.14291329609059178 0.28398474829800124
C 3.1152169988166243 0.7116852079736242 -0.33602662845432174
C 4.196986409979802 -0.001847739617147149 -1.0863389689996348
N 4.7240861474314455 -1.1108231067469483 -0.30153084832602617
C 2.850821627736691 2.1120404334679312 -0.6563388933610133
O 3.555186771965714 1.7642004402260993 0.5288599407868989
H 0.6909053781906912 -1.5501918059340587 -0.3230584251792388
H 2.2345867874686625 -1.8783513133582919 -0.7299377203872784
H 2.452461419859369 -0.5853008403491629 1.2035675656694311
H 1.20927595451932 0.4981767227811464 0.5896341939191782
H 4.956228205501584 0.7493598033241876 -1.380578238358281
H 3.7698102510260685 -0.40264207737182656 -2.002444363929572
H 5.198521752009693 -0.759718300444983 0.5223909820642804
H 5.41491008636307 -1.627649237910518 -0.8338696254587403
H 1.8499637837175076 2.5141242607505974 -0.49706770217885227
H 3.433151431090474 2.6216415928422143 -1.411943681142772