13

N 1.008984368371516 -0.1637453424355549 0.09197207982178006
C 2.424260481967639 -0.20539947942304115 -0.21284879704324897
C 2.8433984126269674 1.0508380991599098 -0.9093924126488545
C 2.2210580365324124 2.2469457437115894 -0.945020290726783
O 2.9247791371101033 3.125636842606942 -1.6732284669034128
N 4.053095985966212 2.516741276260462 -2.138228091164146
C 4.003216331424756 1.288107777255997 -1.686420715461231
H 0.7470088716557371 -0.9571536817015212 0.671381535857504
H 0.461084673182681 -0.22050716044711793 -0.7543185706490437
H 2.7324735534224134 -1.0694484466931922 -0.8244095114659588
H 2.973672670020683 -0.28720896658211437 0.7363489591380464
H 1.293643405223396 2.6016819959150275 -0.5201368455126002
H 4.804544041172419 0.6125094239545708 -1.9347703161800067