9

N 0.9819078987569724 0.08180102201902004 0.04780778228388836
C 2.1331849181873763 0.08581355222166583 0.05600006562801647
C 3.546510359383788 0.07450698109212503 0.05338604209574639
C 4.397747627745368 1.1437634707694517 0.061656756596890606
O 5.653697750910345 0.7172187964507956 0.05950150245073579
N 5.670583846888116 -0.6638289947717524 0.05847009770422897
C 4.431064759011214 -1.0368735186711586 0.060004113301965714
H 4.242372120613374 2.209859646675575 0.05571721087321814
H 4.183252946704926 -2.085041254218887 0.052628374546692135