16

N 2.997835969419467 -0.7179659116162623 0.8592622493278205
C 2.3833550676933757 0.11194346208384971 -0.18253611362360275
C 3.2387175729827993 1.3225629858509427 -0.4357821017693669
C 2.6687973693020473 2.5835774072106332 -0.9848033606208174
O 1.3160314855908364 2.60050678586157 -1.3068058200295023
C 3.107280571188403 2.5381457942538312 0.4341534211766921
O 4.225962611545329 3.2896098190017824 0.7852924841629183
H 2.4653476646521297 -1.5623034245570877 0.994218402890362
H 2.978580028616263 -0.2239637755065146 1.7477353586927629
H 1.3658307225225688 0.431137717824327 0.051127299558048
H 2.3283817974497563 -0.4905158172490163 -1.0885941049787118
H 4.255128784944394 1.0937907429764855 -0.7662320204779168
H 3.3125945386126974 3.145711338232669 -1.656783719237689
H 0.9763785963395811 3.487924678087875 -1.1411817925043455
H 2.30207020893011 2.519704859644563 1.172234354331431
H 4.799379075298305 2.750469466787907 1.3272657635020717