14

N 3.1687006140472285 -1.1019265951464727 -0.44535671540112726
C 2.367904396137765 0.02041548585768231 -0.005315897788031319
C 2.9383620565056083 1.3088220047655776 -0.5705442706714422
C 2.4039355309634955 2.646697370403669 -0.07860664975459035
O 3.707818970967641 2.9820526629538437 0.482204414762622
C 4.229746497074456 1.7855734308748514 0.07522959441748664
O 5.316112827731811 1.3668142523249813 0.2715492786914212
H 2.804106128922213 -1.9667704456135968 -0.08336064012160282
H 4.122054589761225 -1.0020832177488976 -0.11885140495814771
H 2.2884080880568387 0.12821450448519855 1.0941961780120337
H 1.3394115202918935 -0.10044593186627977 -0.3771015931697096
H 3.0357080500457396 1.222512197769941 -1.6642116277181727
H 1.6527589440452086 2.5892998102648788 0.7235322610590262
H 2.113643894258109 3.3691643022280733 -0.8383305971495421