9

N 0.9452309120931722 -0.08347713291738611 -0.07744911726240981
C 2.097985549571441 -0.09159173425264394 -0.06963617999155465
C 3.514483679958484 -0.0735344595865549 -0.06279512953094714
C 4.3217636043931655 1.0176309445633358 -0.07027411819235845
O 5.598054245902316 0.5717779005218377 -0.06634710313682107
C 5.492920741187292 -0.7665265588111609 -0.05836787884387315
N 4.291433225211109 -1.2175264564100046 -0.06299010428760629
H 4.1629937247175315 2.079874417084084 -0.06755524470462575
H 6.413438129937848 -1.331316880991143 -0.05387624419869189