16

N 1.180764865918134 -0.7750344423905219 -0.24293845088266705
C 2.5834840184287744 -0.38226823710832647 -0.18194526778346173
C 2.8611558165036937 0.3523980191078482 1.109858825197214
C 2.6716270661222126 -0.4385837047125977 2.379914925389238
O 2.766627633915202 0.3717875189292572 3.5281693595429138
C 3.718674510415305 1.527462735839805 1.1045866529073587
O 2.300614314805075 1.6671802408225473 1.1657010868652165
H 0.9977736040253509 -1.3357366442017857 -1.0662147642562398
H 0.6038435807631525 0.05308298329704585 -0.31013848493849755
H 2.9052059429984998 0.2605952861427973 -1.0179212257464174
H 3.19329923758437 -1.2892553673215823 -0.20282004064468678
H 3.4461429661793517 -1.2010582461831774 2.458411114595046
H 1.6977447508372314 -0.9508871727770231 2.329374614413121
H 2.2042590368968074 1.136607454764122 3.372790592883402
H 4.173754429479782 1.8556095834298738 0.1760257954835975
H 4.241421341114925 1.8005863411487988 2.0170593964243295