13

N 1.011837529109401 -0.08005230527560114 -0.045417301283922226
C 2.363465483796591 0.034963850501605026 -0.16537927696408364
C 3.037377913265616 0.7258215920666206 -1.0960117413351573
C 4.517250731780471 0.864407429266242 -1.2535460606431004
O 4.673600134194275 1.7221431581634112 -2.40267555832315
N 3.431664761268187 2.074547205473603 -2.9039042921060996
C 2.522132670912363 1.5329692298077828 -2.187945433312041
H 0.614739509843509 -0.6219482843962554 0.6945959452393679
H 0.379859831481037 0.3836344767240327 -0.6735916555730606
H 2.917849877372556 -0.5181795655371304 0.5877027773392834
H 5.033550463202962 -0.08166102530037365 -1.4708702042649
H 5.01061232629672 1.3539407545820652 -0.4072049025600075
H 1.4898766314215897 1.709030199753987 -2.4494451818688256