17

N 1.9740933469031696 -0.9920716355827547 0.5997811631358363
C 1.8113553064884946 0.13447461884244294 -0.3128857131549659
C 2.79824153603762 0.04563723811463976 -1.438696936819487
N 2.6805984607915367 -1.0319000047069373 -2.412814617065269
C 2.378807205829248 0.3336123800747777 -2.825521073217428
C 3.3202568696256116 0.8774075668030314 -3.854892841616892
O 3.149744522702099 0.23647392863575542 -5.091645807554174
H 1.3326966734025087 -0.911126870170183 1.378041960989144
H 2.905719464682583 -1.0062716609420514 0.9873692696609987
H 1.9203683078880518 1.1199532072058476 0.16516588395919626
H 0.799568105455326 0.09404578931159478 -0.7187914251357881
H 3.8281439976184837 0.26920992120468956 -1.164570700775949
H 1.8447844138239342 -1.563028960020878 -2.2217107417003508
H 1.3311895868964991 0.5823198070462131 -2.969973554379751
H 4.35495488610027 0.7704639425428076 -3.4898029248146982
H 3.1359980347430394 1.9485852060287856 -4.025299516004875
H 3.240097061100256 -0.7069778749810384 -4.923232124767281