17

N 1.083198398032964 -0.12394567908270059 0.21817278654356323
C 2.4884793562861445 0.17225951827124544 -0.04597240156861601
C 2.5874482927247398 1.465994832619633 -0.8274560401146985
N 2.012141853369757 2.6351660431481467 -0.13987992006865452
C 3.3422476017502647 3.0323414620444145 0.349503183826552
C 3.960310431505552 2.1518660809781482 -0.7539345347035676
O 5.034930973379315 1.3108245704596542 -0.45056553019357237
H 0.99954874885043 -0.9282804727600691 0.829258528160341
H 0.6009707793477224 -0.35094992789177687 -0.6399558569899293
H 3.028754446422793 -0.6162428695039893 -0.5913052297167976
H 2.99323002380409 0.2894729472287755 0.914239172325183
H 2.1817874160801747 1.3107178799021848 -1.8371849964330251
H 1.3279191514859643 2.3880096146864336 0.5650714835057056
H 3.5491869351149714 4.112393990563269 0.3135884874441168
H 3.612634866962018 2.644842442859927 1.3406499499672557
H 4.161428592762559 2.729449585661109 -1.6626304819112951
H 5.848806635002014 1.809644871852621 -0.5147655394990241