13

N 1.0414973334122233 0.16708909612335834 -0.001734518482930704
C 2.4873608911936054 0.05835895857297984 -0.021748825276450966
C 2.9521635622332036 -0.7731136897225249 -1.1611139047790504
N 3.8478903808050013 -0.505596778031878 -2.044638447359192
C 3.899423238854145 -1.6289858888738271 -2.8377456574019084
C 3.016467298739628 -2.5357021596016494 -2.3804079990039058
O 2.407815648802568 -2.0079133506722417 -1.2971262413216382
H 0.7472430503035887 0.7567905011315342 0.7691159822271821
H 0.6176822834516527 -0.7414448624841644 0.12417898074637417
H 2.914887062055008 -0.3682662135625514 0.9066884912969351
H 2.9382057183030468 1.0406550162333184 -0.15916792271169358
H 4.56383147299441 -1.6989541124179273 -3.6848281423655256
H 2.7195993598621118 -3.533881941983894 -2.6766210408031106