17

N 2.49310962047446 0.3993384620229459 -1.7371816287083728
C 2.5628077395867854 0.10800678668149113 -0.3164938236868434
C 3.1876072579423713 1.235531825873308 0.47350016660459937
O 3.3503406138244296 0.9242519893879574 1.8284852400200802
C 4.285642714614341 2.0866933966976595 -0.08265885213279385
C 2.924999775321875 2.68738864897125 0.13266800028315784
N 2.7520440490236666 3.6896414007529876 1.1401611555030104
H 1.8259356220948946 -0.2071197484804043 -2.200272578759478
H 3.3935186739719105 0.23425516552315429 -2.1830591958346504
H 3.1067314580563097 -0.8121710619761641 -0.06823864270403106
H 1.5303708772182893 -0.034796559019410395 0.04178766518578259
H 2.4806812981203077 0.9459829864729583 2.246088034571855
H 4.618357930621661 1.9384884979071073 -1.1050906247217236
H 5.063997324278777 2.3545765164607455 0.6134260642110206
H 2.345942149391603 2.8512432827509 -0.7645393505421442
H 3.2985942903272987 3.4677365104659317 1.956691023593834
H 1.7860693626717294 3.7516482850734993 1.4288937827812522