16

N 2.3174902563471 -1.3317405391567183 0.11202451904505753
C 2.5345880707590256 0.09832906794279085 -0.06289431471127872
C 3.02560334807103 0.3565538942291633 -1.4584766807618617
O 3.23620527125913 1.7505087654265663 -1.7462424417324345
C 4.460446463326276 1.473542668285827 -2.426586901405346
C 4.495373142195111 0.06420274807060804 -1.832033869838845
O 4.815113591694661 -1.0336087477232583 -2.6178013813300214
H 1.9217514049576134 -1.520740695983971 1.0240694023612043
H 3.180149243219526 -1.8421300684156392 0.0410633782444577
H 3.2597365160650136 0.5419482067857692 0.6485370463512902
H 1.5900073343652763 0.6224774135233342 0.0706232235334329
H 2.334898914811313 -0.09845148017989477 -2.1855717369757275
H 5.255554279850816 2.1749895706573787 -2.1530706528202534
H 4.328443903646653 1.4635616037304287 -3.5153381193457247
H 5.13044021277728 0.0044623053732592635 -0.9421301933282177
H 4.21978396590669 -1.0642494575219177 -3.372190375632623