16

N 3.752318815433741 0.4179846796002435 -1.0357294483479467
C 2.6738439411356634 -0.10295377310334168 -0.20065458070340628
C 3.020159483247944 -0.04381934139626423 1.2661646081821525
O 2.0382112812928965 -0.6679447184675487 2.0208527649269454
C 4.447559716552241 -0.12617564901845824 1.7492220074091045
C 3.664734013634909 1.1600694899598023 1.8667291689171392
O 3.1294561472197415 1.5335906207876928 3.100136427439217
H 3.394116942232495 0.7010913125128475 -1.940743557138304
H 4.4546008816619755 -0.289154638649684 -1.20515807572782
H 2.3946212971592917 -1.1401729846706579 -0.4323473818116846
H 1.7787218439875643 0.5088973237130558 -0.3537658826540861
H 1.9226874101075857 -0.12696537721032827 2.8142450167288118
H 5.263634384566275 -0.14458393857515142 1.0459205725697809
H 4.587385482089772 -0.6935309797079697 2.656861007889618
H 3.9373161956454963 1.977464873161658 1.2024109975475432
H 3.8498507597168183 1.6984119520316223 3.7176970615360183