17

N 0.9256828048054793 -0.29912842968956216 -0.27425485831868623
C 2.3069059860631325 0.11077298879864335 -0.08794398614256378
C 2.9145282976027467 -0.4530757392058754 1.1817995826450471
O 4.210836955276447 0.0716041305781823 1.2563244453452105
C 2.14722658093596 -0.3481291467084471 2.5232681563322377
N 2.608687441418019 -1.715937544358648 2.835180874877528
C 2.8480263675599597 -1.975784085968789 1.412459367992521
H 0.652227091111769 -0.19540613603764323 -1.2436469548014555
H 0.29370470640709745 0.2823689757359545 0.2658954535948224
H 2.4562953758941903 1.205920085264663 -0.05476337175917269
H 2.906702969664338 -0.25907820706227164 -0.9177346760111891
H 4.628442367169909 -0.3119387946458479 2.038807111807786
H 1.0621564335237943 -0.26684392297517145 2.374891577204857
H 2.4901563373516225 0.43346199558375725 3.201287788636636
H 1.9278048576516371 -2.3106051658325075 3.2852611215461933
H 1.9999201845324108 -2.4259311777818295 0.8723706319508682
H 3.766164770315993 -2.5305418854899946 1.188081315441166