18

N 0.9369526177892458 0.028196875037348804 -0.15307356766652552
C 2.370415353951227 0.056150846553465715 0.07942638463653112
C 3.1225747203246756 0.2724226587085761 -1.2226813753651158
C 4.609094425523168 0.34453605290525763 -1.0408579642428242
C 5.4784077890832386 1.0437525653071702 -2.056332625465221
C 5.278396991429382 1.6501134580169516 -0.7163226089073048
O 6.393531695141402 1.6753623923517762 0.11577238311763208
H 0.43471136063950494 -0.08456310827959772 0.717787569772885
H 0.6908784020233962 -0.7488805951813422 -0.7478130736458546
H 2.7605628865399514 -0.8629784930093799 0.5574717658484976
H 2.587395696717888 0.883204186939143 0.7581893379511732
H 2.7540146632232596 1.1980556479748163 -1.6899705884807819
H 2.8794024071081794 -0.5356979516699556 -1.9255736604500777
H 5.069175459784683 -0.5141839749061802 -0.5769666337426768
H 4.9970430656107965 1.5070430000746307 -2.9105187535716768
H 6.459458539683225 0.6165723435563323 -2.2528143400766627
H 4.638357931622614 2.531337807144073 -0.6656657640044197
H 6.092981229763021 1.560592728532842 1.0166651067998629