18

N 0.8116203379164111 0.2820368420605715 0.21115100922988506
C 2.0086021433606174 -0.4631763330714777 -0.14662655131901442
C 3.2274784970367003 0.12494953194710072 0.541491905313091
C 4.490220925380279 -0.6395248756532662 0.2526439232426413
C 5.745587927825324 -0.3090431289072737 1.065489369770821
C 5.732674837448966 -1.7941758490603532 1.4148714156806124
O 4.4644226063691015 -1.9829015945489026 0.7791598828913473
H -0.008981051478395152 -0.1688491403126812 -0.17871570686963964
H 0.8494064370891248 1.2184416105818225 -0.16514514248225146
H 2.2005398829870075 -0.5104790652561192 -1.2302303931839706
H 1.8894782234560423 -1.4940886102057653 0.1952941728245098
H 3.058059313126819 0.1569172268064923 1.6208187773493412
H 3.3751514863060734 1.1583598558885067 0.20130662143441455
H 4.674595646642703 -0.6716137851727988 -0.8311457472154978
H 5.551389918340536 0.3484127395874477 1.9110447246352125
H 6.61256629439275 0.05419485878406231 0.5088635217929612
H 5.701451788699569 -2.0569431172741073 2.4753639402890557
H 6.519487789876171 -2.385524092349059 0.9318517779059698