18

N 2.6534314896869504 1.5472530746588484 -0.031125274832133103
C 2.419625667879617 0.10137227579125561 0.03994150458800492
C 3.256208960586987 -0.6274094958651549 -1.001345394546201
C 4.7391417036534715 -0.43285736919640627 -0.8105828020027885
O 5.175581808145028 0.8756335741867609 -1.01240059382231
C 5.454751395491778 -1.2526559220359708 0.23361473986587
C 5.691687319720778 -1.4866199145103003 -1.2421087224659562
H 2.2352284608945 2.0184577685056895 0.7573674242635843
H 2.2362101468408486 1.9426672517372674 -0.8722681481524454
H 1.3650071092560856 -0.16192326909308194 -0.08407236554776754
H 2.725223416821918 -0.23159469489205448 1.0299564377052932
H 2.9780952668267062 -0.297568155719928 -2.0115182042449664
H 3.0175515659954617 -1.6933706756770353 -0.9477880223332463
H 4.538554042579242 1.4320333829355059 -0.5423481495308168
H 4.899047041059686 -2.003479489201355 0.785614169479103
H 6.232297751214115 -0.7450571484893591 0.791144602325457
H 5.312477362418578 -2.3900073508110817 -1.6889248035826305
H 6.638656891789163 -1.1389216097474435 -1.6476922855903584