18

N 0.6874563086178869 -0.16921533797184415 0.006004767537701417
C 2.137566269048623 -0.09642986851406597 0.13458443133043113
C 2.8076150721899666 -0.5536809535829389 -1.1523259855558055
C 4.318727613779529 -0.4279263808003304 -1.1482094242726644
C 5.013239634639421 -1.348458489965832 -0.18284501909160417
C 6.311190073871599 -1.025166387078793 0.3880442198268034
O 5.137595396652438 -0.9085142604915525 1.164405059067561
H 0.24222329157978645 0.17637160839037025 0.850364744399038
H 0.3941194937119342 -1.124176440738165 -0.1170697644284883
H 2.5348735719395887 -0.6806833425350856 0.9850651421014641
H 2.417857106363279 0.9377952365749442 0.3255969590207947
H 2.3907474577245607 0.03613810620321729 -1.9743353795898677
H 2.5317584394129797 -1.6016068246194228 -1.350128167055378
H 4.61939652333212 0.5962332692249053 -0.9260187581270867
H 4.6962632526573005 -0.6563021729311577 -2.154448649211402
H 4.753686070639792 -2.4053040598528965 -0.2744493406311083
H 6.788811763388569 -0.08444471694085791 0.13326775807054284
H 6.987088649579255 -1.8249854005619346 0.6917635387734273