10

N 0.982118146564105 0.03396609818877877 -0.09856819863633462
C 2.1360397007766245 0.0057883525882906975 -0.11236567698017519
C 3.504993971072388 -0.04433534652144972 -0.11306573120954663
C 4.709742012565985 -0.0838875938447222 -0.13170041915286676
C 6.138496070646805 -0.14487792759294787 -0.10689247809284541
C 6.880815062909348 -0.8289679405853676 -1.1796342542258378
O 6.823926541920109 0.5857607119793331 -1.1115603923504096
H 6.587682409769177 -0.09146931958878789 0.8828565486538553
H 6.327045568631209 -1.2788317128256856 -1.9964313449564925
H 7.84467221204963 -1.2742015837184348 -0.9292783151137006