14

N 0.9667874842746796 -0.03347856565191828 0.2709319959755491
C 2.414487632985505 0.07321817556042086 0.12520376487377377
C 2.9479171394434154 1.4186691784299796 0.38194771294665464
C 3.3395309685111023 2.5310294125306436 0.5774477833709634
C 3.0522647832567813 -0.9919700316395239 0.981808778426922
C 4.298011458596633 -0.8105389497010862 1.7169805227738029
O 3.0430814403238386 -0.7550676506463063 2.3859477385379155
H 0.5088356454401114 0.6572453125363702 -0.3081526479359226
H 0.7288117588417867 0.18456025554193514 1.2332679094786105
H 2.661307313892569 -0.17932009546985386 -0.9154458862049307
H 3.6844484771921784 3.521144805718036 0.7626737305132429
H 2.7377703325757468 -1.9961149309231414 0.7016541378811935
H 4.819738242705894 0.1331408059278407 1.645114570518458
H 4.902777168497182 -1.6801053236605195 1.9417564237882539