16

N 1.5729374603412893 0.6180383038891277 0.21892769353098293
C 2.9765878541538613 0.2859070750829852 0.11828886262202229
C 3.36793069894384 -0.8820539639100389 0.9743828408316362
C 2.5058986426023457 -1.610635476448055 1.6698303410073856
C 4.833219784984105 -1.1397058039861048 1.0190513152435419
C 5.401599384653976 -2.4711616051926955 0.9244007332924115
O 5.438987289713967 -1.5992308679834277 -0.18852377161062323
H 1.3210988822609422 1.301487959388235 -0.48244731276360314
H 1.370961709555019 1.025947863732589 1.12815682541514
H 3.65409279084615 1.125237997545719 0.35327705164596795
H 3.198492018304471 0.02163289622760174 -0.9206134431607301
H 1.4426020230182535 -1.4003548670266432 1.6329235601093495
H 2.8478741653153445 -2.437085189731395 2.291254903782793
H 5.434023327191198 -0.37146788726199664 1.5128651844397245
H 4.737716864649625 -3.326389461060855 0.8278846832063379
H 6.376956763019136 -2.677686540714835 1.3752552738435153