14

N 1.2737873417761383 -0.7845375200388214 -0.18842150420872777
C 2.5429166212537453 -0.36346294418434594 -0.09981976030928295
C 2.980811539060978 0.8137277714069558 0.4217256648713631
C 2.089522981624171 1.7720795100432238 1.04358282586344
C 2.27994308306249 3.089534523768821 1.1597529961171993
C 4.423797566889255 1.04036275083868 0.374170736072555
O 5.237796677998021 0.3205534140458848 -0.16914239962181005
H 1.0487231956597194 -1.6779861777024896 -0.5846586630371768
H 0.5048829516255336 -0.1905221503044827 0.06869878810149921
H 3.2926196422405467 -1.044537494243135 -0.49613720059991206
H 1.1803129289325596 1.3680792968093443 1.4961425702817477
H 3.142785991847206 3.581358710827883 0.7293003673482006
H 1.5793568343437023 3.7115272423269365 1.6902570029233481
H 4.761379985126029 1.9525499451667427 0.9156844469104811