18

N 0.881033104136429 -0.0009381827130499872 -0.1788500895647591
C 2.324681282497737 0.12406393185550693 -0.0934096791843339
C 2.9478453922228995 -1.2099646598923184 0.3023340393787508
C 4.434993146484423 -1.1671504684537126 0.2889146874784096
C 5.224495084424616 -1.418129873426986 1.3283703697396199
C 6.715582428602147 -1.361680657629056 1.2757609483071026
O 7.254071324640963 -0.4270080149272885 2.196361356440041
H 0.4566007240242046 0.8705087282758943 -0.4768613507642247
H 0.4876504311842203 -0.21884405337549986 0.7254300878654152
H 2.6589722793371493 0.8943924238633906 0.6184864513089734
H 2.6969920332908908 0.4150050000792108 -1.0729351565945466
H 2.5818477965947433 -1.9655820018804484 -0.4087724089170668
H 2.598155936768207 -1.506551164228129 1.2928517319763635
H 4.9039324233283 -0.9193163577211548 -0.6700685888255687
H 4.793868181497874 -1.655643093436951 2.2976439961444046
H 7.049257339465884 -1.15243016425683 0.251894051709562
H 7.144234838919743 -2.328371813308679 1.5704013745784446
H 6.830675654377551 0.4252806045837787 2.0211198098746794