15

N 2.0402375036934832 1.200727339958523 -0.6207875905537376
C 2.9699753098590156 0.13744423674206865 -0.24485381884451543
C 2.9209519665743113 -0.08118764064908546 1.2193688475918816
C 3.997581661358158 -0.09321010165139815 2.0151347899734784
C 3.9147794542271583 -0.32526683484303737 3.4386801626048116
N 4.979186477195651 -0.33347074532568866 4.143276891340533
O 4.709396992201001 -0.563985098087868 5.4751285707947055
H 1.9922497461343391 1.2917255026161059 -1.635699131473658
H 2.3615566536600183 2.091667752368941 -0.25213956153260714
H 4.011783649437436 0.3073862966488819 -0.5595847984694088
H 2.6265528802703244 -0.7700793236370291 -0.75100049362704
H 1.9341006540979213 -0.2310725166342894 1.6430318781576798
H 4.99453060997909 0.06890413741173972 1.6079719976906464
H 2.9470827248557594 -0.4926712270198788 3.908122957765108
H 5.582932856673559 -0.5447594762067345 5.880762786722043