15

N 1.7893525483363042 0.549466512735174 0.23694336826170864
C 3.0562683585146657 -0.08589539411181206 -0.04829676974641251
C 2.934075858566361 -1.2147959597521771 -1.0357868886739507
C 1.794000250006925 -1.5289174725411852 -1.6525993968914932
C 4.178780484072534 -2.0294971185724386 -1.1993344110407593
N 4.338276046427977 -2.6299372520818993 -2.403276615807739
O 5.000166123132612 -2.142878334131333 -0.3061046875927405
H 1.932401087568232 1.4087659426884542 0.7512077921652203
H 1.22136008898303 -0.056446235104604 0.8212201236120511
H 3.5955736205241826 -0.47768640658945416 0.8231033695560546
H 3.735393886034834 0.672590096047015 -0.4824435744793898
H 0.9075251094709349 -0.9331375198125412 -1.4832736948453231
H 1.716326312263453 -2.3871793300651865 -2.305438098534728
H 3.7853669492125466 -2.3677217220386186 -3.1921104776478906
H 5.194847689575582 -3.132995704280156 -2.558660369663007