13

N 1.0107139658596507 0.5335943749630215 0.13801102401679097
C 2.320534476075677 -0.039439190944027515 -0.139196858306869
C 2.758079232929092 -0.913626169765264 0.938877841670101
C 3.14466762491578 -1.6223890518790531 1.8274231547207465
C 3.519158216396654 -2.474197641063801 2.8930956586020127
N 4.75319706484495 -2.7203408655479913 3.1241949465845993
O 4.888344612055432 -3.5729199871419244 4.1954015689357025
H 0.7469492051715726 1.1605444579349182 -0.6148030758309003
H 1.0317672125892767 1.0780847803260445 0.9899593504789539
H 3.1153391567634823 0.7095024768881256 -0.3048629386363834
H 2.250871289180342 -0.6264727326749585 -1.0581702829303454
H 2.740770954968972 -2.9137118190473137 3.5113227979792327
H 5.842288462774696 -3.681809317100708 4.275048991430733