14

N 0.9385654747463605 0.2608821220859513 -0.35888824272267
C 2.3274962569653437 0.02126574423174582 -0.031321659335310816
C 2.648630784544101 -0.4437158207932166 1.3732568470755677
C 1.7416068595119851 -0.7102164490943126 2.311208692987097
C 2.9653703233055024 -0.9719265593416196 -0.9832033190172028
O 2.090381099764773 -1.8742335628632512 -1.460354801574335
O 4.136814662756814 -1.0015446238915369 -1.2397900247617155
H 0.5297997217293082 0.9091888385274959 0.30334136243897303
H 0.4100901163084906 -0.6004225487519663 -0.3297383046076878
H 2.882987478697376 0.9534779798685185 -0.19299684472508397
H 3.702539889754161 -0.5618853093101537 1.580494821227381
H 0.6811542450567794 -0.6046073800872023 2.1277862926369746
H 2.0455503936712764 -1.035020225529426 3.2998118181193674
H 2.5924323392577944 -2.4768272464661725 -2.0064918144959907