17

N 0.019357234067639662 0.4924573794164105 -0.5076872707735391
C 1.3349435257802713 0.16320857650545612 0.024608690980521097
C 2.4205062990336046 0.847331683160539 -0.7853472203711923
C 3.8125588708871656 0.5639842028335645 -0.22740079325430748
N 4.865831697287205 1.190720564212467 -0.994868767610008
C 5.608329201663058 0.5297771709419724 -1.912493009421425
O 5.516446285104186 -0.6422627713144935 -2.1628362051612617
H -0.7081955714107482 0.06767806844994453 0.04461694773193737
H -0.07504288001784122 0.13230181867007818 -1.4459998002040506
H 1.536136048621049 -0.9222175830743126 0.047703621585824196
H 1.3807751377278308 0.5088735578154255 1.0605818078421698
H 2.229228112825019 1.9228183889824355 -0.7957578059957661
H 2.38271771561433 0.5041759985495576 -1.8194593098546803
H 4.020886777571276 -0.5130345573525283 -0.25224074207493496
H 3.884851751720172 0.8937784416771365 0.8056359230662348
H 5.000279064569963 2.187689633622336 -0.9127872143094913
H 6.335776729076672 1.1987223229891197 -2.4112145811248973