18

N 1.3221070020912609 0.5536280513346182 0.12334647857086717
C 2.5641635579963986 0.12484769058002701 -0.5005998614867536
C 2.5443586017440807 -1.3396430711698337 -0.9555893043049879
C 3.8803694929632777 -1.868787571025046 -1.4497754574781814
O 3.822954135521143 -3.2133661722329876 -1.869803686800417
C 2.8741877544611336 1.03758124014752 -1.646111857928202
C 3.9700633094780997 1.7758891348105723 -1.7687475824420467
H 1.0592965211380925 -0.07678455425076892 0.8632778266565414
H 0.5670411303445484 0.5258359969115332 -0.5554002774526648
H 3.3567319059906615 0.2422262920435932 0.2389984724718637
H 1.7976261358548224 -1.4710468146345939 -1.7512413635818365
H 2.2097741165863622 -1.956595906897103 -0.11452702806482985
H 4.650981248349325 -1.7244352695988885 -0.6708775597806437
H 4.21202827619821 -1.3040780089045634 -2.3246611222920475
H 3.550924240683988 -3.7510602102845776 -1.1217581696673093
H 2.1281223122165702 1.0671972015749378 -2.437061039760959
H 4.731933279135176 1.7813948047490642 -0.9953314735980411
H 4.131875287062899 2.4109511146366343 -2.6304278265136176