16

N 2.990461661879062 -0.7867748512085472 -1.9531185068647792
C 3.612697448986119 -0.7143683395112022 -0.6282358100267716
C 3.0879194105311853 0.4605917254341765 0.12260432173437945
C 3.8703585279397728 1.4138907886149483 0.5880630721457928
O 3.392677940662175 2.475468386440917 1.2941409962220842
C 4.268457834747022 3.4143923769611937 1.712504037402778
C 3.8810865759649786 4.484231848664139 2.3925419909586774
H 3.3026536589997053 -1.605925350505076 -2.449445997811857
H 3.2467426297630353 0.0198762615095216 -2.5025075023723473
H 4.708618302843223 -0.664027825602369 -0.6503739261180191
H 3.3441478694720304 -1.635832609811143 -0.10504455769075058
H 2.0159933236306093 0.5245295707127113 0.28113014532148084
H 4.950175842512541 1.4061602527911725 0.4490911131413104
H 5.307279240324796 3.2257277718066866 1.4612340707024047
H 2.8481736069550743 4.6554799216612235 2.6334807305959553
H 4.622533098323384 5.204273004985499 2.7096867458410507