18

N 0.8795952876432903 0.017060973804972086 0.08117876798884878
C 2.3378470916324727 -0.005144458588337105 0.09172151364261824
C 2.8679573854807736 0.026886060778439226 -1.327764598286948
C 4.386515184398876 0.03720781887191889 -1.3891415882976264
O 4.953462476988284 -1.114577993721875 -0.7760178922819886
C 4.960615869783133 0.187890922031522 -2.7664052729747217
C 4.292403603204191 0.3273305978841334 -3.900075956408092
H 0.5194088313992287 0.04302894487810176 1.0279681321679555
H 0.5193764168730037 -0.8256602266915108 -0.34179057413558306
H 2.7645096242648157 -0.8661506932245223 0.6143273227759167
H 2.6786325144763703 0.8851122558520191 0.6260741877283496
H 2.4744643888075606 0.922913715434756 -1.829185144977796
H 2.490017464500009 -0.8349577934670479 -1.8912760997589257
H 4.753108354499078 0.8642105506693271 -0.7773729873751994
H 4.776748952800039 -1.8694482425148904 -1.35657528521558
H 6.0465935065956495 0.1324132920790834 -2.796397898957218
H 3.2145241396324042 0.38988798556330767 -3.936606133364237
H 4.815122538149947 0.41359653908897037 -4.847974216475363