16

N 1.1027450508472223 0.33214248478165 0.3081739464073468
C 2.5335296993778273 0.21010790400903723 0.046489219369032775
C 3.1116454142552827 -0.9162587457533216 0.8797145735320644
C 4.613189929004222 -1.1206205561559408 0.6286003474381652
O 5.376152352096311 0.030390486472976284 0.9584602014537265
C 5.104918082664414 -2.304176177639817 1.338492067115217
C 5.499319048629456 -3.256247219196218 1.9450418944258965
H 0.6945399895043077 1.0471862469815432 -0.2853500859495013
H 0.9522742274508814 0.6223711639061319 1.269163431471293
H 3.09773321057665 1.1281336035275198 0.2243721300237973
H 2.6520479734212006 -0.03785156437798092 -1.0156453242564614
H 2.582725373465744 -1.8539558792810789 0.6552892395539093
H 2.9629431975347704 -0.7219287588123032 1.947961229457746
H 4.770598911183637 -1.262915801746276 -0.4435031113964082
H 5.462254014771239 0.057794107176921315 1.9210523515605327
H 5.855835559173802 -4.1047433346601085 2.4781420998925814