18

N 0.7631721444875009 -0.9744306238428231 1.860988656804528
C 1.741074371867257 0.02331150584160046 1.4485997041083585
C 2.283706312431573 -0.12300367547474667 0.029691410494665747
C 3.2924407669422857 0.935835278137942 -0.3356315298477282
O 4.446255611719157 0.7544390092082294 0.46821986229622786
C 5.45805512987054 1.6219030793030802 0.2763784333254122
C 5.528428041412016 2.6324841043963056 -0.5741983980014592
H -0.022094257285860845 -0.9891693400554716 1.2215267672823973
H 1.175987154003223 -1.904801749426284 1.8438433704543322
H 2.570341536819036 -0.01080913185419018 2.1599028624354433
H 1.2812936991227517 1.0046792540385738 1.561594934076279
H 1.4581093184662457 -0.06524841580774235 -0.68221277958981
H 2.743491212993374 -1.117005321066967 -0.09271914253197062
H 2.894396091615926 1.9372934254238463 -0.17788202237652598
H 3.5783896524455443 0.848841282972739 -1.3994896810619186
H 6.284199135295608 1.382147151332375 0.9523184048254785
H 4.731765508563894 2.902850414062927 -1.2554918499695413
H 6.422497502444733 3.2323288815703908 -0.5937428062504476