11

N 0.9481898861064096 0.08638163221335302 -0.1581244199216832
C 2.263959609514309 -0.04255702228545329 -0.016376372014668454
C 2.945142460973362 -0.8534340861879671 0.8639000937281222
C 2.2909371128791576 -1.7346614451207572 1.820842475672916
O 2.861051257994854 -2.4539534549161397 2.599061390678216
C 4.371244844516109 -0.8141165586291034 0.8227116993698933
N 5.516990183436655 -0.7703772439038987 0.7691415585007851
H 0.5762605599045919 0.7192218969002756 -0.839995723892489
H 0.2864279397419244 -0.42662175812093256 0.4091910852803044
H 2.845114536309541 0.5788700698521388 -0.6889068278571211
H 1.1826272115051621 -1.7137977955853931 1.7937600738881267