13

N 1.0511685666985189 0.10136774274173582 -0.08096059615438791
C 2.3803299058472045 -0.010844247761878536 0.09643212845724866
C 3.0432836990498657 -1.0072088000807078 0.7332104383987416
C 2.381849036875112 -2.177472392234456 1.3953113091171223
O 2.4579815391579074 -3.3702001566296946 0.6474685323159798
C 4.4656170678907525 -0.9466403097125339 0.7476189064183691
N 5.622348001252703 -0.9138282404597445 0.780234669764227
H 0.6644631315419163 0.9701270304267456 -0.4020435765181566
H 0.41628185017186664 -0.5102521809325374 0.4130178394767727
H 2.9651602618639346 0.7795530257968295 -0.3723399935373001
H 1.3250748373560899 -1.9258225079706612 1.6155586342606625
H 2.8623377550720255 -2.3850335284143513 2.348653197829255
H 2.3303950395347823 -3.1538052395976175 -0.2748955488697497