14

N 1.0147908609210186 -0.5310932705961305 0.05630803271804492
C 2.3090955533287856 -0.18313707218257552 0.009813334337226443
C 2.897683605916692 0.77348743224149 0.7686108210495889
C 2.1406072179608104 1.5604678346273215 1.788505511063599
O 0.8836981057176111 2.0468065048106965 1.3252376511688488
C 4.310530764578227 1.0192455515450516 0.5645121594278437
O 4.979644073149655 1.8497544381041604 1.1466976265156696
H 0.6407501248696708 -1.175243776609582 -0.614834206893406
H 0.3795012082884344 0.09538244332890923 0.527518243189051
H 2.921754379501826 -0.744576607912692 -0.697862362703506
H 2.777921983833338 2.3791620304114676 2.148351686926018
H 1.8936047653646704 0.9337343532216225 2.650712952839065
H 1.0623910466615343 2.680163954146448 0.6304798650970912
H 4.782306266226871 0.35832641748348143 -0.19928760008883428