14

N 0.504870653217311 -0.7388772714032354 0.16096451934230835
C 1.7230108857549735 -0.1987468173938904 -0.044949340456023994
C 2.9109710632602526 -0.8502382730361867 0.054707671768140405
C 4.183748111579397 -0.2154085024329643 -0.16282196411335942
O 5.2364408516413326 -0.8166717253438602 -0.06338740228403485
C 4.266785852635274 1.2662929160382947 -0.5317248603296589
O 5.595337602510814 1.6453280464448836 -0.6884584545841109
H -0.31995958231120325 -0.2038062549385164 0.02900540604149801
H 0.40597382155752043 -1.715519292039202 0.37844361046714314
H 1.6993619435500944 0.8514029929396647 -0.30651675867872263
H 2.9393459428466286 -1.9015852713310306 0.31904474376248165
H 3.7873283169295915 1.8626617883401664 0.26924484863019493
H 3.698019321925205 1.444775753939498 -1.4523817416180218
H 6.092049336516107 0.827595626284122 -0.5119303526968191