14

N 0.37893995539132214 0.012216833610269784 -0.008220629689214581
C 1.8184407385207917 -0.057520518364971865 -0.13140346992589377
C 2.5113888391617385 1.0510592130626333 0.5956300618983861
C 1.9231793233535694 1.9315505146685057 1.4074913065031003
O 3.8533304824630497 0.9910378385869701 0.2768392169010226
C 4.792282598335088 1.8407690580048985 0.7197555054630603
O 4.6495574322809 2.775491304104249 1.436789620499835
H -0.0504260447800272 -0.849048973902332 -0.32322079167173334
H 0.0050113267989818815 0.7704756957001503 -0.5654487426058852
H 2.1901268261831586 -0.04114992182175277 -1.166248949128318
H 2.159762170686078 -1.011301300641842 0.29243442961488647
H 0.8608492654348354 1.8048846696844978 1.5641812998753517
H 2.4495724509214476 2.716783826898014 1.9111797485184578
H 5.754444207919572 1.515665395443589 0.3049667472323691