17

N 0.7551086729156923 0.18471467033973554 0.06281831400431467
C 2.189614008258968 0.07587732462872195 -0.13363565480945172
C 2.9296551325313582 0.6518228050329913 1.0644265029034752
C 4.431274055701019 0.53249333255238 0.9701559263801739
O 4.885338885881061 1.352569484846111 -0.09391176085736042
N 6.24189485107301 1.2465120080276961 -0.21612514932900562
C 6.695564031437387 1.9794185885956785 -1.1462271902721453
H 0.2556202013223022 -0.23217264234637056 -0.7155759377718939
H 0.47912323038716775 1.1639435192444028 0.10140843380794665
H 2.5587859701931133 0.5672052997199694 -1.0521295577596188
H 2.440987378107686 -0.9795554374843272 -0.22346519761062575
H 2.593756858734559 0.14025779658492893 1.9666010609129632
H 2.666083881950892 1.7143897898863785 1.1886779525573679
H 4.731561791075233 -0.5056122857828361 0.7817786162147695
H 4.906808725686066 0.8559723281024145 1.900602534990699
H 7.770045105099278 1.9401568180970101 -1.3177279221165212
H 6.054819032768481 2.6079735487099045 -1.765847833819358