19

N 1.6565455844428512 -0.3879537356626031 1.1525922180697579
C 2.822518907342961 0.06013453389810217 0.40380243952427614
C 3.0245981121683787 -0.8115100759133974 -0.8366085306627361
N 1.8400522481027566 -0.8372314411069004 -1.7053303926136802
C 4.245806375412923 -0.4092149511904549 -1.6365066922513793
C 4.601352079031543 -1.3849350118585715 -2.748865632585817
O 3.6179860079457784 -1.4645257268859493 -3.748890933760108
H 1.352074936668147 0.30855243424910916 1.8165473755366706
H 1.8716482581986313 -1.223171028313153 1.6771834592670574
H 3.7446425847865856 0.06753247806393568 0.992871108877447
H 2.6441204325664107 1.0932943806410662 0.07793126706567448
H 3.1782253870899324 -1.843456958283098 -0.48474787845199613
H 1.6780661294906616 0.09017594286457804 -2.0741671134787634
H 1.0335688461004948 -1.0560481893703444 -1.13082467100175
H 5.101268696442556 -0.3200653072580304 -0.9534786933127528
H 4.093722418617292 0.5888498928926434 -2.068419373822321
H 4.785847064358415 -2.375008382589314 -2.300875501648499
H 5.530014877329406 -1.0786655388777173 -3.23021824614586
H 2.7624946763832328 -1.5153622161541291 -3.276996983270004