14

N 1.482303673976422 1.0208336642560323 -0.31001770468686707
C 2.4115670287606443 0.7044478823715342 0.28276188351429066
C 3.575600470148476 0.3060479493644776 1.0691127543455745
O 4.730848582426659 0.3895090661175132 0.28249270874677573
C 5.876762144179877 0.060064361362199864 0.9992613624692749
C 7.131833431862556 0.6932305166938535 0.5526005214666798
C 6.508377281311536 1.114825781107303 1.8618908351191448
H 3.403663853081014 -0.7182142700405832 1.4323991983901943
H 3.6395479702503386 0.9614072123838464 1.9510722257404463
H 5.8996644805560745 -0.9655181424527791 1.3436487980362042
H 7.050655658751404 1.394092878722534 -0.2779387350431335
H 8.039541950307655 0.10416007395407038 0.5655962099481606
H 6.034455257043434 2.0841534733389984 1.8760917613790125
H 6.985589108836934 0.8196231539277284 2.786594726840743