18

N 0.8415503618407835 0.7839336678795735 0.40737455032258024
C 2.087389190385622 0.05263604136563221 0.2958175949989451
C 3.3103267114256516 0.9019507031488215 0.6025661258521556
O 3.36560915901181 2.081135563093605 -0.1899284232707602
C 2.0732859386546085 -1.174559121500686 1.1803914579551051
C 1.2989949275746295 -2.384429902198505 0.7464377706116361
C 2.7987892981094062 -2.4133672699704527 0.7591520740247055
H 0.9718310738575641 1.709234551597145 0.018950413906961148
H 0.5859383452813876 0.8933912851047333 1.3841713218601446
H 2.1871361577104134 -0.29295495485868733 -0.7438141216600289
H 4.232872339095735 0.3145711131548047 0.4975652728539238
H 3.2638835992879467 1.2512958073838876 1.6448685075309377
H 3.5582914469150975 1.8236025539979526 -1.0898890903646574
H 2.07431734454857 -0.9504832049318531 2.2433796534140193
H 0.7950448750534984 -2.325337682063367 -0.20469986262529158
H 0.7783938903198976 -2.9480664494838167 1.5097377732542223
H 3.3147741794484187 -2.3962591061388308 -0.19648305820445702
H 3.300188178714401 -2.9990657333142714 1.5248813429736272