18

N 1.7527671268915404 0.9473870273148564 0.045814722805155576
C 2.6550277610423323 -0.06493859861685444 0.5686581251170391
C 2.9470879848537925 0.08939583080744837 2.0530158437256127
O 3.440577389221763 1.3823722075809826 2.366685042505965
C 2.1143496089611467 -1.4568660618786347 0.24485787059251024
C 3.089052070344192 -2.5650270370635293 0.4804119290362137
C 2.8912596871773126 -3.6135116781014456 1.2503245217184964
H 2.0264585657018253 1.8532707439333942 0.4148650479917863
H 0.8170586780539449 0.7682832617367593 0.40258847026386924
H 3.611699198736345 0.05853115741543401 0.036610196826179914
H 3.6311514036443016 -0.6900360671016144 2.402227237031345
H 2.0159132633748396 -0.01290714045193056 2.622684342634876
H 4.3421803010261115 1.4462755208032696 2.0588512507867938
H 1.8207267033717642 -1.4433150341623366 -0.8049259788302116
H 1.2046329103737659 -1.6352397637240594 0.8261097313534596
H 4.034258541515781 -2.4796442777086454 -0.05919008378546876
H 1.961707030701137 -3.747557316923171 1.8092881233956077
H 3.634562271536297 -4.393780220509848 1.3572153127578377