16

N 2.6784887482002304 0.7294366566940849 -1.2626215025383307
C 2.4499238356995523 -0.09247937672332915 -0.07248290222974446
C 3.074826028631267 -1.4666555496576275 -0.2846762799621791
O 2.6326716024916115 -2.0013182264587157 -1.507585971119817
C 4.608445442267013 -1.4388368055034448 -0.26366806140755056
C 5.175598169785846 -0.9816119829224708 0.9956337940966642
C 5.606593850019524 -0.6072493111631342 2.0425344717388447
H 3.5621369316733342 1.2144014345237932 -1.2169811132977888
H 1.955057773433886 1.42303285876554 -1.3818068721910381
H 1.3674339453615083 -0.2355388847641186 0.03947806381849024
H 2.829233270569147 0.3505138888196701 0.8467299919723286
H 2.7282096172276145 -2.1335338281996865 0.5093967994490178
H 2.5762901785261256 -1.237093082436805 -2.102278046810445
H 4.965857963110921 -0.8010317539376637 -1.0825663420625595
H 4.965219561116474 -2.4494111613140137 -0.496809907263781
H 6.010626947693846 -0.2777383382411868 2.9779172185210485