16

N 2.719879333246635 1.0097017439204077 0.840518309940008
C 2.296912378461589 0.019027369811560654 -0.12366082093011607
C 2.8460939965533174 -1.337966467516545 0.2507536057712397
O 4.254544800154846 -1.2769542194924248 0.15886712038305167
C 4.861628766488441 -2.473271729521877 0.5812454461341743
C 6.309055621697603 -2.3686244075411294 0.4740539897202658
C 7.506032272320181 -2.303710863027951 0.3969073835600047
H 2.3838544000183646 1.933170602723666 0.5801802370682178
H 3.7374082878399424 1.0616646103634 0.8566108053111997
H 2.607169823185647 0.23116704538689364 -1.1657866697777628
H 1.2112534386205753 -0.04921640972848093 -0.1197246749044523
H 2.450494009281021 -2.1112677853149053 -0.4156382682802429
H 2.5563130339805 -1.5777338652094535 1.2795234693683193
H 4.512325095597458 -3.3247748610154577 -0.02243597395426824
H 4.59123059412907 -2.682749509914598 1.630144687772726
H 8.567598810406745 -2.243476798442853 0.3269925495168449