11

N 0.8723104042566855 -0.019743007093305613 0.06552716362261908
C 2.218580842130703 -0.030840265650077463 0.06589346214379946
C 2.8240113342947457 1.2793302375606181 0.4539572841659616
O 2.1433245949129063 2.230050231109015 0.7289955812970386
C 3.0156974356312816 -1.0899751926803098 -0.23801828090397797
C 4.419917673434461 -1.0219692407022218 -0.22147224002154317
N 5.574409030029582 -1.0117890759234884 -0.21717898952676917
H 0.4156835499542961 0.8453196615372307 0.32273687871655193
H 0.33407803941923053 -0.828725516983524 -0.16849694861175307
H 3.927675944673922 1.3132149326170184 0.4585581493173485
H 2.576538645800915 -2.0407086564852426 -0.5233584216486193