18

N 1.069200573851958 0.5452629313850899 0.120718875667682
C 2.524849231994454 0.5207032978499273 -0.008775388692901818
C 3.1313520526449214 0.21514070236242389 1.3517654587617862
O 2.493013100936543 -0.9215537666397361 1.8898733808970836
C 4.620279277123419 -0.023296226809853354 1.288964682978656
C 5.229055924116524 -0.36098627900281294 2.645598730167364
O 4.872606022842553 -1.6345438440033346 3.119927862486555
H 0.6085835767875698 0.4049845730845829 -0.7688272142188883
H 0.7491342775239761 1.43387851105911 0.48487348142473247
H 2.959569572812594 1.4473002459261202 -0.4182952049280883
H 2.788326712200331 -0.29447776945882054 -0.691858654880126
H 2.944162753035374 1.0762774648591011 2.0105904655900395
H 1.5596098891451016 -0.848853655033694 1.597341081479262
H 5.104942700481651 0.873560334201637 0.8928229292410815
H 4.833553217006876 -0.8462102917514673 0.6023676674296925
H 4.95208447436702 0.4232443733866629 3.374583854581272
H 6.322405372642397 -0.3452641296531708 2.5771174255347775
H 3.920932506448264 -1.7301068561221882 2.9872621120160474