13

N 1.4577213359020613 0.7652741835103923 -0.4283863355157791
C 2.2129474883524067 -0.23504646520289613 -0.26037205159607185
N 3.471425386797103 -0.3073391571528117 -0.8497688701670096
C 3.7382959755718566 -1.2123138957936503 -1.9329953484106277
C 3.708346075663203 0.2714718797841203 -2.143017526960595
C 4.994495859978315 0.9858345215097686 -2.3092967946531244
O 5.206616601942618 1.792201052592452 -3.172012449484787
H 0.6133227230925008 0.6760090370046572 0.1294849447383906
H 1.9987420353927736 -1.0937011639878078 0.37539835703329477
H 2.9104991913409877 -1.771855765652375 -2.3552920504725785
H 4.691696242986678 -1.7332679135160955 -1.8884658104721928
H 2.849263780298781 0.6854459731989357 -2.6773855509011075
H 5.7667591693829925 0.6988848907529391 -1.5639683770689523