13

N 2.727486221533196 -1.1360855625551138 -0.1755776369691623
C 2.519254476784334 0.07249346177963407 0.13668254482289785
N 3.002155155362921 1.1300282617722148 -0.6009424396865369
C 2.8485603595201088 2.572154105278906 -0.3667340954604689
C 3.681267978456332 2.8098151267350002 -1.6383353238012242
C 3.761613509370612 1.2868675410378756 -1.7656869009985043
O 4.258138275747252 0.5076147089168842 -2.5136547779462877
H 2.2761033679620746 -1.751289733567778 0.4965669191530234
H 1.9489857790134348 0.41236405761413436 1.0048444980165745
H 3.307952226883896 2.913013005914577 0.5579254977509532
H 1.8082904906589072 2.9157817753303323 -0.42074033310708664
H 4.646758979905542 3.2920105278474217 -1.4966241544727108
H 3.1640028994583833 3.288284076208378 -2.4652921229799163