13

N 2.495970012927539 1.0076813229931978 -0.3485102764625318
C 2.2961392637775155 -0.14616263423555242 0.13553460348078172
N 2.8391929339467703 -0.5152966246098971 1.3227506829503164
O 2.575476989062668 -1.8043820620203141 1.8000029787328435
C 3.262535992084204 -1.9330783511561602 3.0582992047845483
C 3.9323199072281994 -0.6059592248456189 3.250613471387376
C 3.634218475307046 0.15761198348138808 2.2045444533644445
H 2.013201379486616 1.102577756764024 -1.2354033769023431
H 1.7080491678088197 -0.9603646228147007 -0.29867806080091175
H 3.9704765232824886 -2.7715824327368477 2.980318261038247
H 2.522828267006795 -2.1682141160297115 3.8303251588774816
H 4.536662326563919 -0.33892317064512645 4.0971610998319665
H 3.915446939103904 1.1693168699292278 1.9580057034218192