15

N 1.8088022434666893 -0.468866732877695 0.21378093465046438
C 2.5337873314870354 0.6821868965669537 0.11145552225124623
N 2.697844852872831 1.615790731191428 0.9734178962772413
C 3.29229398456901 0.8072237729681916 -1.188239387687347
C 4.690233877481313 0.15276128136914824 -1.2275702629376293
C 4.1353183470250645 -0.6170590021324882 -2.4250320857040855
O 2.8232080086547517 -0.07515797763091346 -2.22636404541691
H 1.1293354039494072 -0.5404308056371241 0.9546429978204205
H 1.6014768527879146 -0.9316201490399943 -0.659128631336737
H 2.1928195476532117 1.4208634989161757 1.8337945797164643
H 3.279169322329762 1.84727963222689 -1.492031950240858
H 4.901174596905389 -0.464706179811574 -0.35090410094507773
H 5.521488293129073 0.8244927227802044 -1.4115314692262335
H 4.140081163787916 -1.70431404465339 -2.361491991315208
H 4.5445289244052685 -0.304345515651301 -3.3920965144318944