15

N 0.8772309476908486 2.00305791412181 0.48361005719149075
C 2.094179490259036 1.7956339926697449 0.1989295411299282
N 3.0193535147954975 1.482734305331541 1.1469092451724172
C 4.396423703757429 1.2426099023542307 0.905922993877343
C 5.459393376078553 1.9794072928964375 1.7378869710187397
O 6.169576713733529 0.746307045977882 1.948598729327042
C 5.064339412238962 -0.02320330502343705 1.4588136779871796
H 0.346121779927019 2.2254568884549637 -0.35340340238763784
H 2.5245077156243 1.8546983039185274 -0.805404964143676
H 2.6656530537603893 1.4169674325749413 2.0970159663881325
H 4.578800045812869 1.3582666439327262 -0.16576286599639603
H 5.055289979892222 2.3812884463718436 2.68564369609562
H 6.0636722309604645 2.7393372426208344 1.2439776785917163
H 4.495144653041902 -0.4764561029969899 2.282672237177976
H 5.371196608681492 -0.7937387875869086 0.7530441888828001