15

N 2.3992687109506265 1.4652865332578093 -0.1861015651821039
C 2.170925371547374 0.11439219104242103 -0.05559387350665788
N 1.3239789018969965 -0.5747571144034329 -0.7064139548211295
C 2.996322676884181 -0.5205016414182847 1.0310481564296299
C 2.5451096948829632 -0.2732853464104201 2.4773215347908066
O 2.501669242023969 -1.681463302037913 2.7406900956809586
C 2.74436331036664 -1.988570992857841 1.3593899743943898
H 2.006202405309116 1.9442495730214926 -0.9847582080182217
H 3.2614706367704134 1.8494922054200376 0.15924865648207698
H 0.824818429216849 -0.009856403883350245 -1.3991610838957411
H 4.045712830142986 -0.2795244203079029 0.8709997500918164
H 1.5508762408444763 0.19239484550798505 2.5654324364992434
H 3.2470183350164117 0.24312749553447469 3.134933173705676
H 1.8584051250880638 -2.3893523167661224 0.8631417935612666
H 3.596306053383673 -2.6639343783774607 1.2364317638793025