15

N 2.38636388854122 -0.332594944412536 1.3651582848020727
C 2.3989716067701634 -0.2642178213480274 -0.006023688962778847
N 1.7537164291211194 -1.0059002801995804 -0.8254459466734224
C 3.2532418253395723 0.8534324379854772 -0.5444254410457803
C 4.709377649986379 0.6751742501471792 -0.212098850319269
C 5.561889691504793 1.8125441455131956 0.1349556064400981
O 5.0836911919254035 0.9248588893472575 1.1365697768382215
H 2.0121795055914062 -1.168308369425785 1.7899337972717941
H 3.143732077496301 0.11330623885390323 1.8616265239792928
H 1.2159107798152502 -1.7208127074318669 -0.337848758957547
H 2.9064425914422567 1.809334478888418 -0.13881901968149293
H 3.1145955726971337 0.8690493227441386 -1.6331012543308172
H 5.177303773509289 -0.20467336678347497 -0.6427115437936367
H 5.134577930419912 2.8054023766672964 0.1561626499710055
H 6.633145407046834 1.7562266688643962 -0.05270581428549821