15

N 4.031271156323476 0.09467577745110847 1.386766679792167
C 2.965976706727228 -0.04055684543058037 0.5195105395378053
N 1.7285322125604166 -0.03062840105007296 0.8423882737521805
C 3.291271302244084 -0.2779185333379108 -0.9003932712158056
C 4.486460832428957 -0.5026023385031795 -1.4095234511881989
C 4.735706020408156 -0.7346605437590621 -2.8646700993658123
O 5.671030989677928 0.1867584067533731 -3.398279618035323
H 3.817819098115312 0.44389859790426867 2.3102125113937104
H 4.895246512109606 0.4347777385660198 1.012451219381195
H 1.600411242670061 0.13651860938708138 1.839201548544452
H 2.412165860634394 -0.27075315231105146 -1.5337882676659214
H 5.37936239901649 -0.5375025541677503 -0.7786934752868107
H 3.7878603044792865 -0.7178445664350356 -3.4144599618530105
H 5.18805991427156 -1.7243780831995308 -3.0151110117104185
H 5.317540040215138 1.0672625847984711 -3.2735680690345985