13

N 4.64523461749058 0.5791707043123759 -1.078782336793287
C 3.4710329480097766 0.3400677505140726 -0.43518441763590393
N 2.2908847529776715 0.6090477891500209 -0.8484936929292557
C 3.545525912853929 -0.30594553682857045 0.8867901867320043
C 4.649371685977236 -0.699252696561645 1.5454674144346654
C 4.537070754765705 -1.3266111509562895 2.8610321435399855
O 5.483844770656067 -1.6993187551219933 3.5108685205312895
H 4.646478092284111 1.022533906397589 -1.978601682467881
H 5.533271399491273 0.3391934789048138 -0.6851097647445237
H 2.309409019387418 1.0565857516097894 -1.767807965462265
H 2.576765512504047 -0.4709577344472477 1.3276712026755613
H 5.65379458842777 -0.572745629559491 1.1636380985499561
H 3.5001753379789737 -1.4470092692450354 3.233872132271893