11

N 1.1223975912276187 0.1710049221561625 0.03192100670696545
C 2.4298675859363317 -0.1429748745836592 -0.18197478785671928
N 3.0540205511959386 -0.2501768526515616 -1.2863058613449758
C 3.15638861949581 -0.43388320125299484 1.0412447574798842
C 3.732158498066051 -0.6481082745847601 2.0771202040886934
C 4.471640536814623 -0.9310920886636254 3.27660185443565
O 4.070745381985065 -0.7048479935231589 4.386836162936191
H 0.590707658735349 0.5716961950076801 -0.7335646882289203
H 0.8283164219236361 0.4396582380949391 0.9565737515289916
H 2.4515458424782794 -0.01886782572238746 -2.0697028775610176
H 5.46330253648392 -1.3886099176106308 3.100248863333727