11

N 1.5786936854131364 -0.026599149727822267 -1.0543558324096047
C 1.9969698557440883 -0.10692555148103541 0.23660326304299065
N 2.250210066810923 -1.1146686867398625 0.9615684750142101
C 2.178614415424762 1.2623694589246728 0.8538359814432368
O 1.9062158757887737 2.268451629620424 0.23371192996358306
C 2.6916145057531224 1.3018686499125791 2.2056612673857017
C 3.1110424684043956 1.4162691314286229 3.323681798511698
H 1.2802989613120703 -0.8374981427907496 -1.551582936370873
H 1.3472211034656378 0.8835594446172442 -1.4066620023656256
H 2.086535636626233 -2.000417731933461 0.4652280693721456
H 3.487279304412566 1.5094938305414616 4.313008869600011