15

N 2.812376590761451 -1.134662418920021 -1.3438544706085354
C 2.918363595206493 0.05498299328436917 -0.7008805551921751
N 2.7892746759134766 1.237250354744728 -1.164239292800806
C 3.333625030807404 -0.08488778990233213 0.7602104444788912
O 2.778439064904391 -1.240283690118705 1.3685345527991888
C 4.826922265038225 -0.12378247707000173 0.859429548856357
C 5.512299433091214 -1.0645723956158009 1.4974472762448674
H 2.4303796446244155 -1.1631749182738145 -2.275549062186397
H 2.777875901790303 -1.964147319180343 -0.7854962652092505
H 2.569376766569069 1.2286775341983978 -2.161623860719246
H 2.9787576545543066 0.8291971253578735 1.2583389696952978
H 1.8583308737166715 -1.0583883890312669 1.5601478809163003
H 5.32885320542258 0.6952442300843599 0.35731914082549043
H 5.018086137717486 -1.8785496278845657 2.0053726526453906
H 6.6000806796569504 -1.033086625455996 1.5313328356443288