13

N 2.0867409171869897 0.35536195057867914 -1.022125743196819
C 2.2982700362052078 -0.2282955262947221 0.18479417860873987
N 1.8007602256245185 -1.3072473920063368 0.6481232476789079
C 3.177146500712789 0.5608915221476259 1.1551758397292258
O 3.4057976173712072 -0.17951399101331425 2.3129293863454836
C 4.425397031928828 0.9797164880634903 0.5170056884651603
C 5.421140456503788 1.3598357337234728 -0.034627027865574304
H 1.631894197085247 -0.18139998190853798 -1.7447703696641694
H 2.7791706940168166 1.007712729259286 -1.339355316816907
H 1.20507253232419 -1.8084215424320456 -0.004118831990038412
H 2.608990186194693 1.4761854406347281 1.4070359864457724
H 2.848204816614717 -0.9803679909931682 2.183948873050512
H 6.320701930421193 1.6852806095119082 -0.4998042321874911