14

N 1.0729520445195921 0.586019056993865 0.23337841287038733
C 2.3769785420638114 0.1948031676745426 0.10676722560298395
O 3.0343245696993093 -0.1538452488712606 1.0589230115298207
C 2.9752517980003375 0.2945437530732664 -1.2551263575051415
C 2.204971335936473 0.45437157975756676 -2.537932786082141
C 2.954177789969728 1.6023620449444471 -2.0007010844783246
O 4.083316246201827 1.9923048313797278 -2.7137464091195733
H 0.6617993353282177 0.4630551424496965 1.1378344237498272
H 0.46481192302531205 0.6354005875028713 -0.5590098130496753
H 3.9120113178638123 -0.252358526276691 -1.3199046260046934
H 1.1251056656781606 0.47868969246467447 -2.521575895248395
H 2.632609251728213 -0.03659115656503099 -3.4018601013482517
H 2.3874866862818545 2.4065138001308544 -1.5481677698967655
H 4.7298334338584835 2.3424846666991845 -2.0824654654092796