14

N 2.423177525404885 0.037607465132989876 -0.7575095374999351
C 2.4138722921560136 1.0446712145031742 0.1312415581923149
O 1.8486730379293583 2.103141557948715 -0.024228566581770958
C 3.1823344224223367 0.7550595314630063 1.4111288572581848
C 2.3223007426353024 0.510831570526218 2.6519615932601033
C 2.9990080193775293 -0.8567469300060204 2.6841146491772667
O 3.741929316165238 -0.5675397748472651 1.4827714882189058
H 1.9566333850881548 0.15752947596852315 -1.6431744997006459
H 2.928444176999805 -0.8098422391595584 -0.5470285283823977
H 3.943263567497434 1.5316378507979371 1.5158720180552636
H 1.25339650270441 0.5067590767795237 2.4683437595081545
H 2.539385411588515 1.1630476784443824 3.4991810332034583
H 2.3485244654926634 -1.724291013366567 2.5535451555251556
H 3.669964781439863 -1.042522948648643 3.52584131300091