15

N 2.101120557551585 1.2678658459967365 -0.41441043641478514
C 2.578140773154808 0.16585246235468196 0.19833795688101968
O 2.4617017226938236 -0.018139033322967242 1.3987473382158002
C 3.2620967805743875 -0.83905132123294 -0.7031764217347403
C 4.642993518929511 -1.3459789805942632 -0.24126818159115604
N 4.23042067318614 -2.7179947459877662 -0.5795433487458431
C 2.8112688419513043 -2.311078078850818 -0.5561524826765171
H 1.628657436262131 1.9654490424779547 0.14870250289002002
H 2.1919831879423697 1.412031183372847 -1.400062862792388
H 3.265695352568412 -0.5223993570689996 -1.7408694929496544
H 4.768147560072219 -1.1644515652290648 0.8282888289513396
H 5.509767554564073 -0.9755152004801168 -0.7905499847095809
H 4.48560172695111 -3.4196736063680344 0.09048617927338354
H 2.322154891308376 -2.4637246231476326 0.4115305266542991
H 2.20327354437506 -2.7242146201150965 -1.3575080794692047