14

N 1.3954424641497865 -0.6331545387129869 -0.5641633297927567
C 2.1723985223320104 0.20795872025325635 0.16138365562850468
O 2.2346986131134448 0.16154821607270597 1.3707062826400214
C 2.9609823409649367 1.2197330928596248 -0.6485746468209326
C 2.895344869806846 2.6750817900402555 -0.15081821425540592
O 4.322094125646133 2.7649735881556574 -0.07465126482238016
C 4.449569105645391 1.3595758527312602 -0.28524777275146657
H 0.8480463533594603 -1.3255814933826116 -0.07075796736599553
H 1.347597630626546 -0.5940206131108914 -1.5561302267674995
H 2.7923240418688526 1.1223006594379852 -1.7175789357616664
H 2.421990541425174 2.7677725753673124 0.8308048272762691
H 2.4738789452276704 3.4049378708069176 -0.8546318851934507
H 4.715217665552299 0.8265965808905541 0.6310085802856022
H 5.158344573167379 1.1226682745763865 -1.075532645939243