12

N 1.1686030523262623 0.24039108169696471 0.19393044845692736
C 2.4284850577154 -0.11927404055480417 -0.1824755750189378
O 2.9539013908735368 0.26791181508003414 -1.196466623084683
C 3.1138995451973894 -1.0780239022278166 0.7587061701338066
C 2.442388935731016 -2.0699906420026277 1.357336317110654
C 4.514993923652703 -0.9261669958778705 0.8822230114699887
C 5.7054989940629355 -0.7699598381095273 1.007048485868666
H 0.7034557991711836 0.92534771526228 -0.3757241433610454
H 0.8596586461511649 0.10790700031603016 1.135111761650454
H 1.3830094658051375 -2.198879004346631 1.216618665440263
H 2.9576893244521405 -2.7970233521832397 1.9809183104599195
H 6.754737898841117 -0.6351695258561285 1.103559445065629