16

N 0.7275135783487212 0.28786241005138447 -0.07202107405888634
C 1.961513123394254 0.3419698434980484 0.49824028983981833
O 2.208337548135006 1.0909354841381314 1.4194049067887908
C 2.9841313451375675 -0.6089683508760946 -0.08971799081429026
C 4.393679744300013 -0.05123376658080099 -0.028349287263072537
C 5.420776464454169 -1.0660966905493214 -0.3988940839396227
C 6.284876051886104 -0.9519745665681043 -1.4028880463369886
H -0.009964411436458867 0.854891059587546 0.3137664059262163
H 0.5123029950838067 -0.3394005465897011 -0.8274129103196501
H 2.7176529851368065 -0.8778771618135868 -1.1156926988135454
H 2.9187783204417608 -1.5388582765061216 0.49382537358024503
H 4.561343072341764 0.29974916938753693 0.9994254632934437
H 4.479032473391776 0.831783519634067 -0.6698873366445469
H 5.45043956309956 -1.964861579113735 0.21809774446032612
H 6.293028887400148 -0.07247094403023974 -2.0407820228475035
H 7.008448556241927 -1.7164637224688026 -1.6267461466627817