14

N 1.246957525053111 -0.4546885149136832 0.03170054915432138
C 2.6055853895112318 -0.36551965625550736 0.09341461370602429
O 3.287025859756658 -1.2544839807246788 0.5526516706263137
C 3.1812785839195485 0.9270291865985026 -0.44022487626094364
C 4.704664380880332 0.9436370922921937 -0.3633369307647441
C 5.264556281538726 2.181708184564343 -0.8729168021519454
C 5.720462281262358 3.208685190672851 -1.2890161155640316
H 0.8100932004751589 -1.2830204502194977 0.3726740994202113
H 0.68510248454868 0.2858979677427573 -0.34437087552963747
H 2.7703721617370856 1.7701870871105576 0.12483368505938851
H 2.854756246188151 1.0674962224322864 -1.480817155359699
H 5.107447712620088 0.09346849656626255 -0.9256977307975774
H 5.019325309375502 0.7908557023693757 0.6715672917643728
H 6.123444811990652 4.1196695478591 -1.6707173565084605