11

N 1.3353059625279389 -0.8609818553777715 0.25733219462593715
C 2.4435293609228785 -0.12267767367729786 0.010327820358177546
O 2.86480867986711 0.7388919902619616 0.7449764418929284
C 3.1181159499065516 -0.41480300327800984 -1.3075558148025086
C 2.448182591468205 -0.7271696461061471 -2.4223750396160164
C 4.532841538052906 -0.23245096842527188 -1.3323735398339287
N 5.680913811978447 -0.12507718822089806 -1.3727969374935314
H 0.8885499639018531 -0.7173750409812996 1.1514706781961639
H 1.1548671624066598 -1.7123498468232903 -0.22993992442901168
H 1.3721504531544546 -0.8152327217032989 -2.41364756439368
H 2.9602494044577092 -0.8572868706391982 -3.36671121874393