14

N 0.9859018408519329 -0.2121480053702211 -0.4938037376266659
C 2.2297783189689633 -0.025980293437282614 0.018000062114991097
O 2.7436785659700096 1.0785618756585285 0.09003727128562175
C 2.9376060987430193 -1.2506359320115985 0.499757796581951
C 2.300364382603815 -2.2885387083599658 1.0354235482991871
C 4.433764387800203 -1.1708523692492576 0.4125687385695013
O 5.1137922369009035 -2.2357862343334247 1.0313515365210688
H 0.5058765427985679 0.5835636331237 -0.8661615971709993
H 0.6561948186416279 -1.1270827937612904 -0.7369818702724042
H 1.2166656074074247 -2.3008243744966537 1.150245240648526
H 2.8562286650832043 -3.1426045113259886 1.3921231547000859
H 4.75144154265054 -0.1914636364962858 0.7971717101505325
H 4.732703634123649 -1.1833857978537696 -0.6442560281794307
H 5.0281529738156685 -2.125377965120029 1.9786327344499781