12

N 2.7954372702821875 0.5566874709837479 0.7870479981726395
C 2.2108746356694873 0.17479847692725925 -0.3642786305449757
O 1.0098661151768062 0.07528863504132602 -0.516043198108628
C 3.159105796746542 -0.11084495762642603 -1.4947114488721922
C 2.647277810664223 -0.4929709149500873 -2.671066321556652
C 4.628789992726239 -0.00826058712963983 -1.401173732410342
O 5.258923078624921 0.3121757714774879 -0.420805712616559
H 2.2000073224956593 0.7614374762326654 1.578879577626849
H 3.806229637616502 0.621001887201489 0.8430438903750439
H 1.574414067619943 -0.5775205674228298 -2.7945975309051323
H 3.2961659841227924 -0.7046646555090389 -3.5139123964384926
H 5.150335605908262 -0.26137111927055384 -2.34480924323975