12

N 1.0372888551915127 0.006342021361189779 0.16822182583558673
C 2.373578518090836 0.08702274393367763 -0.054536785567689226
O 2.985658346929581 -0.6522072536814594 -0.7907627103338013
C 3.0383984679462475 1.1486718513950425 0.6877580852227422
C 3.6312777740415236 2.015984545810704 1.2656368378815708
C 4.416734955838159 3.0260638290632964 1.9741259960264217
O 5.655834960439859 3.3061656840102263 1.3542437965030978
H 0.5176294404890416 -0.6908147573053853 -0.3265820897962913
H 0.5715868543445287 0.655606137038388 0.7676860732003674
H 4.553188174493484 2.699723177028001 3.0121941574425626
H 3.870716578201026 3.9719309039530213 2.004238154405836
H 6.094679248358397 2.4685143626349246 1.1576754503522648