10

N 0.9674345154171498 -0.10128027231623993 0.20125496082456165
C 2.258879728403616 0.217433291034469 -0.06578701408419656
O 2.8039255081090246 1.2353494439216546 0.28722192984427036
C 2.9695194549252957 -0.7816258036674834 -0.8587265508505517
C 3.6028574386596257 -1.5783983334116731 -1.4990774576461963
C 4.379564240473983 -2.495872818743493 -2.3094516931513365
O 4.760688622067014 -3.5687673208967494 -1.9196743916247516
H 0.4322579500589826 0.52408289888697 0.7701598419202739
H 0.5812674907608373 -0.9872261221265363 -0.06808706306856878
H 4.595274459239851 -2.120991532175637 -3.332868573798371