14

N 2.105973483086992 -1.5652336089677747 0.38261713142808745
C 2.428887874663637 -0.26692821803412103 0.5695239119997652
O 2.0984857327838915 0.3540048947372053 1.5609681142705725
C 3.2482601677339615 0.3676949284054389 -0.5395577486728419
C 4.747919527685085 0.12955472720706404 -0.36992119461642115
C 5.240844531873245 -1.2108975508862179 -0.7905126446922677
O 4.560839649499833 -2.092341692267179 -1.2399793435097222
H 1.6525714291999163 -2.053375185558217 1.1280310475583513
H 2.5540063403441913 -2.099009922979547 -0.35521041576089646
H 3.039145853845127 1.4339233877093411 -0.49604181227900873
H 2.929251473910834 -0.014135567698693993 -1.5177397339724543
H 5.063391157493711 0.2963736786091737 0.6721600960334398
H 5.318963284663342 0.8653732854480043 -0.9496847521794388
H 6.336487400108392 -1.3658047482709665 -0.6753441552847192