14

N 1.1423526119509573 -0.44095345874337327 0.054000181517030475
C 2.405901204268791 -0.16693716979886422 -0.32658891514311705
O 2.9728919004277823 -0.7105317523685549 -1.2518690666345393
C 3.094663998982533 0.9323199059263203 0.4964232210333793
O 2.317923299526052 1.3869945525035947 1.5840208299514524
C 4.475683983198532 0.5057687245578923 0.862584369963554
C 5.0638922929424695 0.7904468845671826 2.010679371868324
H 0.5973898735663765 -1.089126744249106 -0.4865966953129398
H 0.710161104068474 0.13362474255220294 0.7596163085163485
H 3.1687641811298652 1.7789810012082554 -0.20866231015240244
H 2.5655538192027914 0.8564997972282536 2.3459977476672513
H 4.973451119972196 -0.08353997344014935 0.10439471726157863
H 4.598111188365289 1.4062451770968225 2.772391282806334
H 6.068399817827176 0.4408188142895386 2.235002587929491