15

N 1.1660163064616587 0.1142399439521948 0.10126447897422769
C 2.5234412325890756 0.015006135183453697 0.0819240772251876
O 3.11198460904212 -1.0470914273002554 -0.01839848528021923
N 3.181289789195496 1.1931737589339872 0.19133410919229157
C 2.77964357509512 2.5837958996394876 0.32014994891992266
C 4.280610966150208 2.9591818833146952 0.34763637265041997
C 4.6066639371088165 1.4535992774353585 0.20879438647814516
H 0.6471943391606731 -0.7395094389196838 0.024254915971108026
H 0.6694987124898033 0.9830067283569244 0.18689958189182823
H 2.2319400500654263 2.810208451987556 1.2410915969547287
H 2.215693911687334 2.9757047136789274 -0.5319518965741387
H 4.616384919036173 3.4108706799748725 1.2776756411597618
H 4.603274493114471 3.5752609617076985 -0.4935962162526242
H 5.126518021829747 0.996529593594533 1.0573239077085974
H 5.11874123665403 1.1605742537359922 -0.7135693843128995