15

N 2.602176337810896 2.9142004682722953 4.0974840842156866
C 3.0967623878070754 2.022802273116556 3.164947263748336
O 2.3775530402149427 1.3178017202805603 2.4977142682689246
N 4.46033742450023 2.04222106696467 3.047790651296098
C 5.131032120745412 1.3031646410711892 1.9968796611416078
C 6.4049727671299195 0.7096147446437349 2.48403020538986
C 7.589770663043483 0.9237322565882444 1.9215563735458323
H 1.6362978548543563 2.7460169093711326 4.3253524516466
H 3.1832691771032833 3.140839265297987 4.894274311605907
H 4.962938965129864 2.820975203183786 3.4470844433973173
H 5.311655152726859 1.9328970912494248 1.1160035450255572
H 4.426592521700075 0.5239651605787242 1.687221031095135
H 6.324299641599886 0.05097593972961516 3.351113440668099
H 7.700709317290318 1.5758503952669638 1.0606965951161187
H 8.487971384117696 0.45086068061841156 2.2972062294125393