13

N 1.2437642858387363 -0.15888482449649402 -0.3758191682321401
C 2.609829702986535 -0.03165654443312101 -0.2282601255747971
O 3.223630697189639 0.9623173175905663 -0.5488913744382689
N 3.216453926565007 -1.1262617323045236 0.33796280310128013
C 4.6077240606084775 -1.0347076994260593 0.7140745664893585
C 5.1819756694561665 -2.349765002107783 0.9521734170832213
C 5.645849771315374 -3.425462486330956 1.172893209411624
H 0.8494483880755348 0.5582573971769219 -0.9618337990689133
H 0.8645131718930695 -1.073620879824808 -0.5118785605054048
H 2.6536903120090094 -1.7707915988355558 0.8660374998167178
H 4.7536645078550706 -0.40827026707079905 1.603074805328846
H 5.14002033993459 -0.5319967833839362 -0.10067926676395501
H 6.0674604163429295 -4.383960973977296 1.363762740800213