14

N 1.1892673414705084 0.538705447272087 0.9451836514146938
C 2.4572222251804288 0.8226631799112497 1.3115185599526376
O 2.809336139559743 1.8148159536408826 1.9011309432462031
O 3.283888057749117 -0.1731306135679912 0.916279673115376
C 4.629885731879997 -0.018267688354115085 1.3189688615273338
C 5.08113838942785 -0.722942446204972 2.546025068822769
C 5.463211312948654 -1.2377631214379576 1.1852048677503184
H 0.5108322586283311 1.2701891277308381 1.0202409071696679
H 1.0106858366360163 -0.2199766182802862 0.3122455926909772
H 5.037388772447583 0.9497466250281951 1.0828501778054593
H 4.331260806697734 -1.284975623300022 3.092940335002198
H 5.825343505438854 -0.24400935119519676 3.1592696877475803
H 4.968747746160971 -2.1397193891968334 0.8391847800936506
H 6.488490777633864 -1.1203399691323384 0.843792113057385