14

N 1.5782014608950825 2.2839940384780566 1.2130036794581927
C 2.8093956804518805 2.159299140639261 0.6612101221063389
O 3.1880947997945768 2.73238438082417 -0.32676396883650866
O 3.5480588391885384 1.2904794220289473 1.380209491976702
C 4.871297173233581 1.052420319370159 0.8903165433482239
C 5.848386134565748 2.085224886679274 1.3737226160553397
C 6.914065571146938 1.7933290112419122 2.0982967386845504
H 0.9802094648436445 2.9993107308127196 0.8517154568275652
H 1.3903589427838847 1.8847340721662944 2.113972335663297
H 4.84257364264226 1.0432961416412418 -0.20758774694346163
H 5.138701578999288 0.06500647912843233 1.2531768279808377
H 5.634031725408641 3.105862670076021 1.0720515713370513
H 7.124503368862453 0.7771789770625908 2.405737033126714
H 7.611624600902447 2.5602596653424152 2.409191750338654