12

N 1.9117665482246577 -1.6270076590666898 -0.11882232699511672
C 2.4555595235394665 -0.3889698777128453 -0.16663119112994054
O 1.9037448846110132 0.6009143717384782 -0.5630070180351875
O 3.737660689929319 -0.4393479828725132 0.2527406902814392
C 4.425226905512219 0.8055439220353406 0.29537402629283166
C 4.457880126371373 1.3651981419830825 1.6373889021888968
C 4.508663610154014 1.8343349830211033 2.736940022414516
H 0.9220710792357196 -1.6994668885729574 -0.28803546285574483
H 2.3862934622840113 -2.367341709305615 0.3631344179983655
H 3.945890030938612 1.5025240608810644 -0.3888517769855012
H 5.448357057480492 0.5989287844397092 -0.05065157048782261
H 4.5342647447383495 2.2461749042067067 3.7129676785824595