15

N 1.17638463869182 0.2627298644823177 0.5534259939417241
N 2.4128570049881204 0.20954618417646131 -0.07993330341051932
C 3.228212013068999 1.3960547408561244 -0.19327636816237753
C 4.469899323238163 0.8731975613354562 -0.9077051577625075
C 4.55169409371324 -0.590345833438717 -0.47662138893140366
C 3.126857590334035 -0.9541287572548675 -0.09449008620035645
O 2.687357224372047 -2.0337900919631084 0.21458714576314802
H 1.1054119985558326 -0.5759298989076036 1.1246405190731095
H 0.4471356355488266 0.18018078914229155 -0.15761637174292342
H 3.455385869707507 1.8003933600773476 0.7992104148038939
H 2.69964994230239 2.1717563291778683 -0.7530855093389957
H 5.352406289782825 1.4472668610571053 -0.6626699002170432
H 4.311522155399402 0.9322379742741989 -1.9884031926351529
H 5.168862528604025 -0.7356649120411677 0.4107808475196326
H 4.9193969782749365 -1.2725469854390725 -1.247032149249645