13

N 0.9363066468050343 0.30563928803462137 -0.04563251584746513
N 2.3156122893729876 0.17712617658398944 -0.0362922420591588
C 3.1526094029106444 1.2255843840618728 -0.17799855446677162
C 4.448659618986645 0.7497474778865242 -0.11499219874569784
C 4.363802013595124 -0.6490717665902288 0.06357185164157202
O 5.38419243306075 -1.5325377051839517 0.185004958856364
C 3.032525473770066 -0.9913594188763135 0.11926275724535504
H 0.5612160587760773 -0.03536766223905283 0.8343821025383472
H 0.5522987859801799 -0.25464467948863573 -0.7986433622117589
H 2.7593442742494583 2.221766666780924 -0.30648342748043467
H 5.342776516017421 1.3505098566041562 -0.2055814503710005
H 6.20786344599565 -1.0552956437608778 0.10836794673700437
H 2.558440268580749 -1.9420711639387467 0.24676582599783303