13

N 1.1885752938076684 0.4250919314534646 -0.06715239401374498
N 2.5310911165662775 0.11271114629521112 0.09482969329257324
C 3.0606763213341996 0.45278005109575425 1.1811952906841983
C 2.482508999410773 1.1344057110646124 2.393314358277957
C 3.6953661037950605 1.2438903040922151 3.265109293693739
C 4.712670202137514 0.7028616137495288 2.602542206211637
O 4.4059140743660565 0.22157517745579514 1.3658086454977276
H 0.8139741731374027 -0.15585345745898085 -0.7955621581653542
H 0.6456867397838328 0.31398514485300677 0.785916844605208
H 1.6806354857607004 0.5448682524189729 2.848304501993972
H 2.046475729417369 2.097932399749492 2.1165265589050075
H 3.7385518512688414 1.685938572494242 4.251395786027188
H 5.7493175496640205 0.5909265226380157 2.877222820931128