15

N 0.6969748191792646 1.0581550544274572 -0.8489418364459673
N 2.0260870052128332 1.3040305963453227 -0.7709508514797303
C 2.833002529684256 0.4903458392515601 -1.3168483067306898
C 4.3079560486518425 0.6695874518143923 -1.1980669170214662
C 4.965474276991845 0.8328110976335706 -2.5391453481143467
C 6.292197163856676 0.2922134863242366 -2.815791362482104
O 5.123198846106384 -0.343968306564034 -3.3133423979070242
H 0.17016738541900778 1.9068932412147532 -0.7743477262256182
H 0.4057882994577291 0.4945964018773934 -1.6477310170962265
H 2.4729563747857086 -0.38274581695552184 -1.886226485085086
H 4.7512689796670005 -0.1910123811105998 -0.7006939186386445
H 4.499842230687109 1.554736806674027 -0.5806673213438018
H 4.645361172814641 1.6995283819290568 -3.1205102284218604
H 6.821542603456272 -0.25291176842809976 -2.0401432489586084
H 6.917204082792929 0.7622564692943248 -3.5734711270167603