15

N 0.5805289836394436 0.9080808467308741 0.12306070284477401
N 1.8883766238415867 0.6040946099869777 0.014601535603554197
C 2.758240196252558 1.4913184998668536 0.28085924486617164
C 4.189715966756141 1.2252451715598736 0.26979375832159097
C 4.708770187582922 -0.008767422018033044 0.2618467484889539
C 5.049648875957309 2.4599081626927353 0.3030263617873423
O 6.4214411410664605 2.2289584216811575 0.4911683953469187
H 0.006627115759502873 0.3201184846963269 -0.44428723276471094
H 0.34991959046218435 1.8979644236337438 0.05215650786968743
H 2.4417274716465474 2.5212098653071795 0.5194201860014195
H 4.07053075794651 -0.875356709118295 0.27208712616165937
H 5.778148328454114 -0.1534070816568062 0.21369660878567792
H 4.65539056104866 3.142774176746591 1.0671114175350112
H 4.967377651790874 2.987256226916476 -0.6558231549249115
H 6.52326813618841 1.7095280331565215 1.2986044827530434