13

N 0.928011528326707 -0.0415202740888512 0.3308580517291739
N 2.2568494640757644 0.05148111130171348 0.29544130675693336
C 2.941821080544316 -1.0171562427788168 0.46458061129639006
C 4.360920228346822 -0.9877772078510523 0.5000654400207984
C 5.565815421289281 -1.0410266151006957 0.5332227520589032
C 7.015130782067372 -1.0392728984852906 0.6023901223899866
O 7.516822291659667 -1.0477658880476481 1.9247436402870497
H 0.4708383661791547 0.7269585600363361 -0.1260921198715927
H 0.5079317283944497 -0.949897375041946 0.14670137352378
H 2.457511084868878 -1.9941599851206355 0.5849415391456707
H 7.400558208644421 -0.18295349644358455 0.038560438157688746
H 7.414713564171762 -1.9422256263508386 0.12978627901721884
H 7.065406798115239 -0.35673818889594616 2.4150171444607507