15

N 1.0687439727659167 -0.23643765504291997 0.04867437611113607
N 2.3922495588339556 -0.004129685408814693 0.09869663992129536
C 2.828394230203088 1.1836575998842807 -0.14346507789481153
C 1.9077357065845493 2.318822650258464 -0.46767817695092984
O 0.9824513153390242 2.5276439531325594 0.5936655471184966
C 4.275122956788558 1.419414684807324 -0.16391829673885627
C 5.222734911808861 0.49053532569432046 -0.12018422702011893
H 0.48624535952191333 0.5419697353265246 0.3518419513850906
H 0.8414834865261868 -1.1042041159073532 0.490693192781739
H 1.3717777239592563 2.0683363486983053 -1.3982661555452287
H 2.494064919997132 3.232938367498363 -0.645816900622061
H 0.3597529329817518 3.2178168742413504 0.3190261294949117
H 4.5689096524479 2.459956944311504 -0.22757375866325466
H 4.972029770887224 -0.5630503477251554 -0.05212286266955899
H 6.275757529485804 0.7581029149774045 -0.132021811005418