15

N 2.361501937848971 -0.6949475717739383 2.9517495366748827
N 3.129811222160303 -1.2045964768088455 1.9589146513567832
C 2.8454340816436487 -0.9306344668010059 0.7576547655106859
C 3.7356968203635375 -1.3886632045544827 -0.3310028002079814
O 2.966230061488737 -2.1301735855069754 -1.2676165817875604
C 3.6106324010775923 -2.57882356780526 -2.3567421915291336
C 4.885218984252425 -2.4372536570402548 -2.675476737509268
H 2.415230900650904 -1.2616725981682582 3.7763851538417823
H 1.4008208485494735 -0.46136615551521415 2.6863121175575255
H 1.9628427604383127 -0.34545682872690264 0.48162196735573587
H 4.5449599159004865 -2.0009841977255602 0.08252795495044134
H 4.186379944691284 -0.5296786051081367 -0.8615684000524759
H 2.919510376998613 -3.1092914046649915 -2.9999848106726508
H 5.603840511557552 -1.9207332489526545 -2.0540878347965523
H 5.2431908366368525 -2.8666211500556913 -3.599999756983596