15

N 5.252822104197208 -1.2161692349091306 -2.120935028002208
N 5.214070857153221 0.06031275622459331 -1.5855580392457818
C 4.111536117832785 0.6821318202486688 -1.6406108476651176
O 3.9104838121943932 1.885363347479748 -1.0770059337075117
C 5.010984057562642 2.445613808427066 -0.404630721474376
C 5.904698763980962 3.372624656948651 -1.160181388337512
C 4.912587434378112 3.903588262934902 -0.15161552679205328
H 6.202398570280087 -1.3909943434666066 -2.423278649680877
H 4.624770744968979 -1.3386798322605538 -2.908122691984398
H 3.2033963968853887 0.31912175090600314 -2.1246585332652703
H 5.445831945047325 1.786211488998794 0.33604400209591107
H 5.662889114355561 3.522592532789243 -2.2067673822593004
H 6.9567959191293465 3.3671403404332665 -0.9238479404054938
H 4.037466163047688 4.408747672583584 -0.541933891639442
H 5.280265484847689 4.279376812907013 0.7876569521424999