16

O 1.0304258999120846 -0.008221895273566267 0.037977112799938165
C 2.4259722342462453 0.08568169727562144 -0.013594182389712658
C 3.010055041863904 1.121495715848579 -1.006166942201806
C 2.6192189599594378 0.12780883210529448 -2.124100010174
C 3.0229707001868547 -0.8933988078773453 -1.0405669854300903
N 4.455299763104788 -0.6580735742255313 -0.81916312338387
C 4.4940652667547845 0.8306644845975967 -0.8484055123358375
H 0.6949400625349512 0.7698685821778418 0.5020984063104506
H 2.880208733384992 0.04904976838949003 0.9864500930833261
H 2.699365997955649 2.170952323465174 -1.0100707668064284
H 3.1897127383042796 0.14542928785052375 -3.049980710740228
H 1.5410857085211989 0.13469705726240214 -2.331078262200907
H 2.7469101211890155 -1.9466165590042095 -1.0614727984106822
H 4.993104504852659 -1.0410838370332929 -1.5904854187773527
H 5.0906871047240045 1.226862359718163 -1.6748233645466588
H 4.903393732105971 1.2189142988533044 0.09229352638153479