16

O 0.6287148586941756 0.032790594641402375 -0.3470626425901585
C 1.9820327218688443 0.07660984373368566 0.0035823462864883284
C 2.9937940249716593 -0.8512211959227898 -0.5787183971340073
C 2.6015417132535834 -1.6287489356542877 -1.8199189124676582
N 2.017868685517357 -0.6818009889270392 -2.771188793206154
C 2.5686221925753894 0.6330930385378335 -2.442312490083093
C 2.96698765410408 0.6092337292169162 -0.9753127776006184
H 0.2249204160612885 -0.686884534403674 0.13950612592907405
H 2.1525847969284166 0.3760588148075994 1.0443875399443392
H 3.770374731627535 -1.2542077689254578 0.06726676707985162
H 1.8995911340652565 -2.4431754365069733 -1.6278381484393036
H 3.510219175765443 -2.0830929580819535 -2.246959389717318
H 1.0265263559543232 -0.644126573225566 -2.5820607884595757
H 1.8324068553275321 1.413937032458647 -2.6760813798752596
H 3.46499708561302 0.8377452618462584 -3.039461936503688
H 3.716661234818129 1.311098326909827 -0.6250707412295469