14

O 0.948704116389693 -0.19712963505561612 -0.41362877720787905
C 2.214211937497495 0.1759949406557116 0.01615895897190973
C 3.496882665402208 -0.542500304134869 -0.5429279837897322
N 4.1695836303405684 0.738586554952207 -0.18659121218964952
C 2.9183399319241192 1.3427894170159254 -0.7140757719943034
C 2.869123593020868 0.8532935771696836 -2.1616878507354285
C 3.2669824866674886 -0.42055955091882785 -2.0435079013884816
H 0.5147022264953625 -0.663248924426383 0.30623635198480326
H 2.2758298730664874 0.2889196964544848 1.1043332078002883
H 3.8968944479027154 -1.468198478694681 -0.12780355280749972
H 4.9611174302135925 0.9212995130914282 -0.7982962811376114
H 2.7166254987906155 2.3958467387031646 -0.49596944573205226
H 2.5356154354774048 1.3969799968040773 -3.037665016381809
H 3.3389930600917737 -1.194553063198354 -2.7880284953467744