13

O 1.444582688993938 0.03820864514524584 1.0148959703960914
C 2.586409732368668 0.1334088171347154 0.2345098559635021
C 2.454273388268909 0.8168184840877311 -1.1075942788829756
N 3.6588981820111104 1.1598558687672804 -1.7889565291964018
C 4.392575898177481 0.004466057007732542 -1.9169892367102421
N 3.822013138392526 -1.086445860912645 -1.5664890451897633
C 2.561555360576559 -0.7029591994698902 -1.0080419843972088
H 1.2356161188817745 0.911370723637858 1.3627968628110336
H 3.536862157726159 0.21457265623507935 0.7613313890717827
H 1.5409441940108917 1.3466353833051699 -1.355414828120359
H 4.095323638452218 2.061543001613434 -1.6932615060506213
H 5.394725398582153 0.050879973015668024 -2.334230683794793
H 1.713868778973257 -1.3708468457561762 -1.1390095634316584