14

O 0.7334773873796683 0.602390365876406 -0.3636245513373583
C 2.063210928271215 0.501574850443048 0.01972853947626277
C 2.922130233456541 -0.5969956580071313 -0.5334631942028385
C 3.077032921194301 0.8114197889123517 -1.0268410307844758
C 4.328827310881052 1.5891307346506807 -0.6889622650669049
C 4.134256878317114 3.028421394035063 -0.7209760751887165
N 3.976672851981508 4.161685883740635 -0.7530263902355394
H 0.23297707160192013 -0.06222621905039534 0.10811326944570322
H 2.2819039405419796 0.8428696571647779 1.0320883511119427
H 2.436843016155409 -1.3009001780094727 -1.2034323431196776
H 3.6918362063105197 -1.0165316641017828 0.09948094770929926
H 2.656879138524128 1.0161967439846966 -2.0026260478040823
H 5.1301793063408105 1.3280738209743754 -1.3811933129622131
H 4.680291543454421 1.3103362456425192 0.30955918106062297