15

O 0.8143873334075852 0.4512792422965303 -0.33132340228124213
C 2.0239659158577377 -0.2079277266458753 -0.18717272088471615
C 2.700327452854548 -0.7973066426161559 -1.3926066146950828
C 3.203111612112981 0.4802046719068658 -0.7911381755631325
N 4.437603204244908 0.4533669357360214 -0.08952364062311377
C 4.70344237209681 1.3026620950762615 0.9556620378216873
N 3.9034642899387837 2.0817503387667617 1.5619902195447675
H 0.11785592328027403 -0.21027471824205402 -0.43031026110891546
H 2.1908073238345516 -0.7037513218431701 0.7653045685516708
H 2.1817924220247016 -0.7036041256353539 -2.3404549050840293
H 3.2857340281108858 -1.6942534679018757 -1.2621072219156646
H 2.9621790066130558 1.3989314064277938 -1.3298905687337172
H 5.24480760440743 0.0938755777520686 -0.5840286483375646
H 5.7381178300250095 1.2567192114522259 1.2811406034123427
H 2.957719133812524 2.0435116384438627 1.1688879036437305