14

O 0.8994923843815985 0.4027170756110112 -0.015866198231779226
C 2.2101526714373136 -0.029527182598935643 0.07912961266550694
C 2.8089124798082015 -0.8634563707742995 -1.0033974851606526
C 3.17143705548437 0.5838349260497703 -0.8796364482307377
N 4.480965234285525 0.9299449484589167 -0.44498447565083804
C 4.744425010411468 1.8722315675041394 0.4998013149595509
O 5.843149462980552 2.2512736796930914 0.792367184841196
H 0.31922328846901943 -0.34315451028462596 0.15374434604792656
H 2.5775339220863716 -0.1991157226448219 1.0927373688661917
H 2.166939753428269 -1.1300076079258385 -1.8429806795805084
H 3.5554360520748967 -1.605749600679116 -0.727000126396062
H 2.706913418908601 1.2447231441616815 -1.6148265194964113
H 5.271601927197507 0.5996872793003464 -0.9691457406762207
H 3.8224558046570714 2.23407369968508 0.9930924610993508