16

O 1.2117909485549578 0.04086464826012704 0.7994720924876744
C 2.515073098788432 0.013608457247599256 0.26114664921254793
C 2.9077154455978342 -1.3722526983626906 -0.24595653823409883
C 2.38281305535359 -1.3746253074014079 -1.668454370600778
C 3.2147655787708267 -0.7659074908488552 -2.7267127089169936
N 2.1578179844337004 0.024596062153334868 -2.0998813340451075
C 2.6210933170775377 0.8716969742229267 -0.9985266384302994
H 0.5956341669100322 -0.12981474167203597 0.08378913792678012
H 3.1695642283029852 0.37169035544350326 1.0668758807622511
H 2.4478374209213922 -2.1480521402767696 0.37350891103242395
H 3.98847908584125 -1.510916980386296 -0.2112744404205946
H 1.6096659476601334 -2.08043629188833 -1.9478567383858019
H 3.047270530522377 -1.019218094910886 -3.7641263411542085
H 4.2410762409517355 -0.5207890853482336 -2.4704383363689506
H 1.9840965490901912 1.761716255401752 -0.9186665668532903
H 3.65772971229504 1.2092207428064972 -1.1516745497608238