14

O 1.915664833345027 0.02870416487264543 1.5764955645743488
C 2.5823331279178374 0.005581190387144077 0.5740646365940194
C 3.039949362482229 -1.2663940491497758 -0.1330168368041625
C 4.041964711194837 -0.7986510984581414 -1.1493966014361132
N 5.139913488078775 -0.055185975312182695 -0.5448166234621331
C 4.056016656417811 0.6850696819490599 -1.1821558380459138
C 3.06742122633661 1.2269958397375693 -0.1949524799644751
H 2.1645387385117942 -1.7276576552018554 -0.6055363090931348
H 3.4327280357470418 -1.9817219321500037 0.5921777560674699
H 4.224129456086906 -1.3732114581880328 -2.0464611236567385
H 5.958393919262665 -0.08444600734079304 -1.1368510707392783
H 4.254677777978737 1.2229533536009956 -2.107630640968151
H 2.207419046807748 1.6905035111308542 -0.6813851646756395
H 3.494143434835771 1.956877065306466 0.5006058024039259