12

O 1.5366484022305638 -0.07128571480298482 1.2259554708105869
C 2.453653234516536 -0.06444397936019142 0.46068607049411864
C 3.2771362901185075 1.04156631078735 -0.17622035453137447
C 4.289195056443623 -0.0689083650779416 -0.6246109168421105
C 3.284389128442186 -1.1723633996886913 -0.18346695609427802
C 4.682904666149317 -0.06011005648596281 -2.0116396811782815
N 4.9829923274504955 -0.06830777303727303 -3.1286737665592477
H 3.6518874554681755 1.820738824917934 0.474853501116093
H 2.758086273027191 1.5000185713659924 -1.0233177158460525
H 5.185600988608693 -0.07004254502466811 -0.004533256944568485
H 3.652536219570655 -1.948572236803379 0.47474153489348275
H 2.7591590096636422 -1.6329534506278318 -1.0196821450023914