12

O 1.6740525736737233 1.1904126298244198 -0.8932997930091081
C 2.520871859910661 0.5706021407442978 -0.35887455448205274
C 3.7390203704483334 0.8972005316465197 0.4988158562909498
C 4.266972907491843 -0.527462545333261 0.2215078911378439
C 2.8958857376005485 -0.9448003268082659 -0.364371834830132
C 2.8466080565468665 -1.673761964837612 -1.6090948480714007
N 2.8254550391247317 -2.231263567938242 -2.6083169033143077
H 3.4397082218273014 1.0641660288174168 1.5398649725143256
H 4.332706032155227 1.7433128037361525 0.15312391395789507
H 5.050140267182215 -0.5375122484918288 -0.5395547678991891
H 4.605524540968316 -1.0936148776128152 1.0830938808019412
H 2.274668883281692 -1.4543267159765971 0.3933247651742007