14

O 0.8156673239122129 -0.02657439484221804 0.013816799279194446
C 2.2126123132372593 -0.024303302745699234 0.025266737611003266
C 2.983718723264751 1.0507769969054193 0.8336082426397402
C 4.017063827716348 -0.02718062727002752 1.1974299139883071
C 2.9778892026844193 -1.103412605204976 0.838614739483882
C 2.6489538602226617 -0.031842252441217155 -1.3795952837091487
N 3.045879227735448 -0.030295589999504016 -2.451429387390866
H 0.513670256856348 -0.031739080150700406 0.9255686232646805
H 2.3772640034338206 1.33118012341879 1.701852316169584
H 3.2964048845680094 1.9508387698952254 0.3088201685158913
H 4.412709052136038 -0.022996042842733707 2.216107689911373
H 4.857506107771583 -0.023653367241516694 0.5000099817441076
H 2.3812815381039796 -1.37920027651442 1.7040352309182394
H 3.3049013347793816 -2.003999516982077 0.31248503614731155