16

O 1.1082064764364565 0.3616206254902132 0.12384260361297732
C 2.4654755967459208 0.026813430731865137 -0.12301833657337723
C 2.681697539375975 -1.4754286983617353 -0.3936402148700326
C 2.658271393325421 -1.6766980927551673 -1.9143974116650764
C 2.9956359040486453 -0.31181717328322966 -2.481880039945229
N 1.9412526016500098 0.6940128304987647 -2.4998617595954897
C 2.906465976849637 0.7072826689221734 -1.411943555745544
H 0.8202697873113501 -0.11442845008380186 0.8971174506326473
H 3.0829116516788964 0.3647781044345765 0.7165608475225808
H 1.9452864733481479 -2.0933511672462912 0.1433415191326629
H 3.6665626850870563 -1.7564978122986732 -0.010232429629307056
H 1.6803849984187924 -2.008294903128976 -2.278634791165368
H 3.3797956471448924 -2.4316199969170356 -2.231437927705677
H 3.7092643762053537 -0.23003177138099823 -3.3003144510536293
H 1.0616602663497157 0.31582798862036565 -2.1575696557532793
H 3.540210057550307 1.5869966197511274 -1.3509978610842894