14

O 1.6953939129316506 0.2633931766259677 1.1795097787796658
C 2.473464381117698 0.05796167558347871 0.284007533730326
C 2.7082581322145334 -1.291172096256013 -0.39283976728719283
C 4.110547435074218 -1.2032566988477844 -1.0069351167848946
C 4.410181505535478 0.27092800555707414 -1.1040990350392894
N 3.4325905489216146 1.0934252198019931 -1.775613399432133
C 3.4184579039143808 1.0488049024568413 -0.30718117338263096
H 1.925026360843091 -1.4682141840423986 -1.140615824420395
H 2.604288584609083 -2.0889007727573428 0.34575289966295647
H 4.193389349652784 -1.7039860509534899 -1.9721561570146429
H 4.840786595420408 -1.6787433978460542 -0.34116524247669444
H 5.434117844167921 0.6106486924809674 -1.1962036981879791
H 2.6723449007558866 0.5476464277319754 -2.1679092051187596
H 3.624776316815264 1.9736209173664057 0.21995942003146665