12

O 1.0766058470142617 -0.045193083919066186 0.24885958331966285
C 2.411983658892878 0.06661912540505474 0.12312665849284407
C 3.0423813593624622 1.3139100846639016 0.03332176544307914
C 4.416626182168005 1.331865669087877 -0.10244042074094087
C 5.1162711756332655 0.12928120645395708 -0.14789840066569052
C 4.382021552865146 -1.044823582067795 -0.05184840554409138
N 3.0543540663907254 -1.0863042780052932 0.08003837772476813
H 0.6803934699187864 0.831765137569636 0.27129525473030836
H 2.4705602805049622 2.23205564626643 0.06752761607148326
H 4.9439367552234055 2.2735672859056293 -0.1728347017907773
H 6.188325268328047 0.097031134613939 -0.24352491999331097
H 4.880234146424988 -2.001273701234708 -0.07874153094633851