16

O 1.3450131259141618 0.05980099857951917 0.8847312683144483
C 2.3528311110788533 -0.029813703565237996 0.201906126707952
C 3.016534225790554 -1.3614038671351878 -0.07402468510719365
C 3.9645947420456515 -1.357550485691776 -1.2630209668954007
C 4.87413692231873 -0.1525088747098926 -1.1991329177167602
C 4.049177822086069 1.120712115700937 -1.2572099763761546
N 2.964771897858541 1.0806683967071467 -0.3049179289194667
H 2.214304581653136 -2.0936330456623087 -0.18281540933205506
H 3.5491008527362027 -1.6270306345994094 0.8434493717146689
H 3.3964300621326697 -1.3326002763721019 -2.1983093852461817
H 4.549314493498831 -2.291026325939403 -1.275133100193653
H 5.60245196523314 -0.13987295570253663 -2.0131871594147803
H 5.449173431874529 -0.17096553338669743 -0.26489262188391755
H 3.6652180006563437 1.2529305930233168 -2.276447463897227
H 4.672535616691114 1.9899792295988685 -1.0340319396939988
H 2.459402613043347 1.937625250875165 -0.11012591812300068