14

O 0.8342376851725145 0.06857051644374897 -0.06355425891498741
C 2.04726992557749 0.012919371857961201 -0.06107553948279603
C 2.7687745991872603 -1.3237872311585384 -0.06459934747252477
C 4.256001114095918 -1.2448472253386489 -0.06319490183368844
C 4.914699004260727 -0.09192881499086095 -0.06928576440717514
C 4.254309984459474 1.2360128578905873 -0.06950679889283548
N 2.810282389086176 1.1245810745287432 -0.07073632013862999
H 2.4044663916568947 -1.8830883167651207 -0.9237315909521463
H 2.405257795364331 -1.8742561517566656 0.8079865559970943
H 4.802935697287329 -2.1812837937308087 -0.06229759587609143
H 6.004190938803502 -0.07682853067465259 -0.06912940166686228
H 4.579261690348165 1.7979260200669844 -0.9461664864949316
H 4.585149847478699 1.8016603296210443 0.8107075709358265
H 2.2763049948198395 1.98308592701916 -0.06444053420893667