15

O 1.580913679742305 0.26455730923854404 1.1215085267698433
C 2.4563218085468703 0.14379612830224828 0.29209712805354643
C 3.023705955974775 -1.2075234615171404 -0.09062022929320475
C 4.089877603334613 -1.1937963478706513 -1.17891029825328
C 4.899746471540391 0.07382114830108587 -1.0909516330733469
N 4.061014212526486 1.2544180449129265 -1.22146871752195
N 3.011021273752582 1.237525739056776 -0.2865905935932303
H 2.1762864542005813 -1.8493206862179616 -0.3321007894239747
H 3.4301209496138836 -1.5914887997438902 0.846321408575052
H 3.6187946482191626 -1.2363805026588461 -2.1751540152947735
H 4.717669909859131 -2.0829545727882293 -1.101627922091858
H 5.658267532807053 0.13445641195963193 -1.8804751580179988
H 5.424150870441418 0.14148688557994102 -0.12863694306981985
H 3.660348281661559 1.2647199063363854 -2.154295165908565
H 2.764746251934736 2.1338475209780103 0.10001058999304321