12

O 1.3944431926269576 -0.17892749533753366 0.7071980702640306
C 2.4648004044660983 -0.039961440562993035 0.1898698484687179
C 3.197556979709177 1.2595498406077614 -0.10349760929975749
C 4.510846829045682 0.8421960151182848 -0.7673274266443812
C 4.4681287039721225 -0.674966592496493 -0.8240491919436016
O 5.297803455917627 -1.4158840342904806 -1.2745588427095524
N 3.271804190103097 -1.0729423077631666 -0.2644127759641385
H 3.3333692906732746 1.7965960811577246 0.8426472144312507
H 2.560310030624584 1.8797904269187948 -0.7319179612962041
H 5.394620642644227 1.139191690525022 -0.20786162529487665
H 4.620604649363308 1.2227560442831449 -1.785076903978421
H 3.0038962122368726 -2.0401022904381145 -0.17449524604156844