16

O 0.9824647351962388 0.09459035974574209 0.025580859460863754
C 2.3830095398636426 -0.11356176132880687 -0.046282327262880556
C 2.759483375208818 -1.5623500374297166 -0.35151314758876534
C 2.719103707448097 -1.6441240745910157 -1.8723208132497695
N 3.2028150379359226 -0.33077185918199553 -2.336768968365114
C 2.14453752993113 0.6673583847725438 -2.473215220246327
C 2.9574104487486776 0.6210860309146959 -1.2463139079380507
H 0.6486625339915753 -0.406758208026153 0.7733992022802124
H 2.8595261346145118 0.24512269216941251 0.875258734076881
H 2.102631222837163 -2.2891655444731422 0.15534453908210463
H 3.7822456289650077 -1.7406195006919383 0.0016047830977535063
H 1.7032516485911495 -1.8322334173272414 -2.2365728156386226
H 3.364189376151034 -2.4177809360911002 -2.2680812599425084
H 1.1161816279061054 0.34055930275547636 -2.3967198236229184
H 2.3344212375019846 1.4405585915129275 -3.204751845473749
H 3.7283569012353257 1.3640765323577675 -1.0650052339693803