14

O 1.4992775808083814 0.23040972469973434 1.2069012676848316
C 2.3970096638762506 0.06570531927913714 0.4260045168350696
C 2.7575638356502115 -1.2410453945204272 -0.28031896922063226
C 4.200623139824011 -1.0322595075842826 -0.7297901596199851
N 4.502822243219069 0.4158479260008325 -0.7010693824541063
C 3.569289985387582 1.190097091181619 -1.471217794793917
C 3.407579142066668 1.0741297824902647 0.003288449529064458
H 2.0515432302752212 -1.391551251088676 -1.103491321290556
H 2.6274505584770966 -2.06926249758471 0.4064500130450156
H 4.414708399732047 -1.4283361732503341 -1.7243827045892652
H 4.887519494093288 -1.5164455215474426 -0.029073327163614774
H 2.85748224536831 0.6913843210588319 -2.1062348386851406
H 3.9587763038027135 2.128712723129066 -1.870691616074416
H 3.6325096382767748 1.9129576875117291 0.6633069866968768