12

O 0.9437252046791655 -0.06195856254488127 -0.3035004504859884
C 2.1018103881627077 0.10468252151127362 -0.025965008010377016
C 2.911450468124403 1.3246369355408927 -0.11860808467915532
C 4.139552642220179 1.055999277826492 0.34685071409477763
N 4.288523262201073 -0.24095894873724474 0.881815470462176
C 4.29134322049842 -1.2521687694234924 -0.17574977993720797
C 3.0431622150017277 -0.9209493018386079 0.5665537939033649
H 2.5637117704175783 2.256101425317278 -0.540757923363218
H 5.010810936607809 1.7006436465128805 0.34512274874344906
H 4.789718963869646 -2.1870319877923694 0.05110087837291248
H 4.382780002665795 -0.8935047337946712 -1.1970017569067113
H 2.656178398598232 -1.6249826785922128 1.2848199062739833