15

O 1.1198271719545136 0.30527644587904085 -0.021510122215584057
C 2.508251296280394 0.24607517481045016 0.062359559903885024
C 3.141791273401103 1.3127596796900554 0.9452636929326665
C 4.452850623041961 0.6586018091378644 1.3732336664145042
N 4.106687911830856 -0.7431161741951203 1.3989896036764238
C 2.980259378159362 -1.0453687306693502 0.6958757547345962
N 2.3176152039731455 -2.112385992321877 0.5351291125329206
H 0.8278170980796113 -0.6237368001079104 -0.010717442561094343
H 2.9639748328836077 0.28498942072803973 -0.9458819292480182
H 2.486808103900932 1.468631779941748 1.8077679606144272
H 3.2849516452858136 2.2742734052589526 0.4389355296832099
H 4.795268769589248 1.0038244698133434 2.3564228747079285
H 5.2521635135162885 0.8670422479984763 0.6504158396819576
H 4.702492551693887 -1.452513734434528 1.7915644173630585
H 2.7074086463850158 -2.9188429234304363 1.029755970549495