12

O 1.044947038576125 0.03849202630405937 0.11673236463587641
C 2.3916833620247395 0.11194344055125294 0.028434791231905596
C 3.0834810395901258 1.3133871797987684 -0.017023301826064097
C 4.4659968779669255 1.2717976694586985 -0.10581780540951341
N 5.172005735630814 0.1464044000991781 -0.15437346154517065
C 4.491022170668999 -0.9929261318361985 -0.113769115098346
C 3.1122107338815206 -1.075551524406063 -0.02339714471501421
H 0.6744845502478355 0.9277152979876013 0.13510461282923547
H 2.5699054993009303 2.2643465540978793 0.019254923826074345
H 5.0334992484662875 2.1947681498026554 -0.14131437502774138
H 5.080288401354981 -1.9072325515140574 -0.14780635649449664
H 2.5982376683677555 -2.0233461640547206 0.0135160701443299