18

O 1.0742815209130467 0.09377234502320696 0.027522135656413385
C 2.4846163981365854 0.009198010178860074 -0.068945194208474
C 2.936760834830699 -1.3899123118512524 -0.47995661495284847
C 2.5216976254698573 -1.7188751806227494 -1.8961659847392263
N 3.0649719897905894 -0.7113213425679465 -2.7964940045031375
C 2.5216496902306025 0.6126720821519216 -2.508799339200407
C 2.9210454858823027 1.0313277675221275 -1.0981921610834748
H 0.76908091471803 -0.5886514730168916 0.6343479219934182
H 2.9341789552222615 0.26788757995844087 0.9007216842021658
H 2.530682427473081 -2.1298612369455916 0.22032657615798684
H 4.0264346695566084 -1.4488413818131523 -0.39823992040611206
H 1.4206316650556874 -1.7749377437210687 -1.9496976983708156
H 2.9223810893993045 -2.6901826509724547 -2.1915977763297025
H 2.8753356561434726 -0.9619779603716806 -3.7590782455131353
H 1.4194750265449763 0.6396067281347317 -2.5850021417536277
H 2.9216676300363877 1.3258777468087504 -3.236516991247759
H 2.4897509132460005 1.996366334817014 -0.8518529366671799
H 4.01190332899111 1.1236898005096412 -1.0565100185247323