16

O 1.0306302810819303 0.1063841691465791 0.2608723022605652
C 2.2113483823659847 0.07883822260636572 0.058510109514847496
C 3.000104567058864 -1.2067638435436683 -0.06089596528712792
C 3.9558931103383226 -1.1800268575097743 -1.2487884662043502
N 4.781820515125691 0.011389064785709445 -1.1716832624040905
C 3.9940947398749254 1.2218970197877315 -1.295596618886024
C 3.0349835776311487 1.3326611226391776 -0.11047396207948826
H 2.2917335726982735 -2.045215711245582 -0.1250215806669395
H 3.5806448620545566 -1.3174639719954064 0.8643488982421255
H 3.3651274608344584 -1.22195884083362 -2.173412263050175
H 4.591956513396017 -2.0642155383400604 -1.2240670374569254
H 5.501743974649484 -0.017480340234074545 -1.8761500902190438
H 3.4104614334008225 1.2427725512634815 -2.228057657226817
H 4.665827398659896 2.083182714346958 -1.306710148253365
H 2.3659771638553404 2.190633260624666 -0.20763027973164458
H 3.6327111081500436 1.4588374071097037 0.803023000354695