13

O 0.8979308281664736 -0.07840192005292897 -0.36130638453128977
C 2.0677275126071817 0.02432674423425518 -0.10792536447672639
C 2.7395873283188483 1.335627517288649 0.2290863385668658
C 4.204449953133542 1.27442448725209 -0.15844929856026513
N 4.7915118365318765 0.10404136641145525 0.4451573206251436
N 4.207307722881044 -1.0835798463346402 0.2978609489785781
C 2.96399177384993 -1.1387499440971083 -0.0021783051512806236
H 2.6408275035895845 1.4944902326750427 1.3055154309525787
H 2.221548472648924 2.1579495612396853 -0.27812829619450385
H 4.7502532372264366 2.151748836747021 0.17256220100179945
H 4.281899930447777 1.2031418097543232 -1.258038326071342
H 5.799926131669132 0.024259887776287434 0.45402305607049115
H 2.5266941428190868 -2.123360249252228 -0.10604031415776781