12

O 1.0117076980771589 0.28387559822418 -0.34301454642918644
N 2.3670890130157836 0.19930024514468567 -0.1956513546546428
C 3.2030973800615183 1.2691892174115131 -0.19668412997721094
C 4.486661615821758 0.770193961766408 -0.09490396146158664
C 4.378868625509475 -0.6376186796880803 -0.01908534607228115
O 5.384147738889336 -1.547825108300712 0.09004362094275413
C 3.0543180655776303 -0.9781938668461119 -0.09256805673337498
H 0.6528703771042251 0.2883982201301551 0.5477327882708736
H 2.823046753372325 2.2674488907143715 -0.29174379221392494
H 5.390547700586803 1.3560928744681275 -0.06337488133043177
H 6.223940355060349 -1.0728009784641737 0.08464699563090083
H 2.5466635617921 -1.9303080154009822 -0.09641732990927675