10

O 1.000409215682357 -0.0666620620816431 0.16798395655090875
C 2.2114222305808564 0.00582856758088892 0.10184809752083872
C 2.9977951879399507 1.2090556137884754 0.019150568276597293
C 4.333179915698036 1.094270608807718 -0.0333337334137288
O 5.012369423355757 -0.054062293538702955 -0.02155265052192045
N 4.343092763627453 -1.2507034680099762 0.05613523974576887
C 3.0674552479473713 -1.2017841258061737 0.1145428913180356
H 2.5273579105096426 2.176484912647526 0.008264426730839472
H 5.016376482308311 1.9344141736316147 -0.09358997048083759
H 2.5855524836411035 -2.1770643343711216 0.17729442945371793