12

O 1.0531105420855063 -0.11639857724173938 -0.48437425386014177
C 2.20408366530247 0.013838846466921994 -0.14395730570924084
C 2.862402061410347 1.3158366589170873 0.22691096768429436
C 4.33325038198699 1.1925129998423725 -0.09187148588615955
O 4.923826179571766 0.08412725100528101 0.5840157154371453
N 4.313973142230518 -1.1094998958327276 0.43789378088876224
C 3.1082843532676483 -1.1483952655387157 0.020529643761925048
H 2.7043442445145756 1.487969057442085 1.2930528470383698
H 2.392985212808816 2.1402481519446153 -0.31696511534592314
H 4.9072630282680585 2.054265913099331 0.2278318847400315
H 4.476889718846436 1.0397537610496257 -1.1741831426750537
H 2.6847297595400654 -2.1392462692978564 -0.09261932264100313