16

O 0.9441481097133316 0.017654856136359066 0.11297578418500281
C 2.350143674838488 -0.021294783910179454 0.0788630606050172
C 2.994427527665508 -1.1014898434404732 0.9976875766969256
N 3.739085005897425 -0.28748449378361524 1.9810190138320625
C 4.3631021860148795 0.7176437660762186 1.043609659554504
C 2.928263842741926 1.190433788571628 0.7793872934689895
C 2.7297612713438815 0.7952389132460942 2.2494760386743144
H 0.601027624853804 -0.7795779284730069 -0.3040602227914879
H 2.7007192068959105 -0.09721372126329482 -0.9609817933683306
H 3.67693645859414 -1.767116164613771 0.48307711776090895
H 2.2280767721147785 -1.693495553329368 1.5080781616491588
H 4.945983115152599 0.27858564959498816 0.22480546346948
H 4.968191594675129 1.429547422271921 1.6019326449233013
H 2.6715301354486853 2.1759750522722534 0.36365348009149767
H 1.7400326114371965 0.4432900914759695 2.563726741723284
H 3.137845444208672 1.516796328873889 2.958344338097354