11

O 1.1475402830806423 -0.10480087662975975 0.4302099987719693
C 2.2947264814211263 -0.10255924879461036 0.1794575758668196
C 3.3721424642654947 0.9429464075184565 -0.06905104110942487
N 4.261095944810337 -0.13573012578088384 -0.5288413193201917
C 3.369671025854212 -1.1990578652959896 -0.04836707828045053
C 3.0794977616622567 -2.2713276727270273 -0.9898504083858541
N 2.831672703351549 -3.1128643819852515 -1.7269309823609884
H 3.6558494897782987 1.4528710960420639 0.8603503092553803
H 3.1346595691687904 1.7006269381551302 -0.826277367315828
H 5.182631166714495 -0.13932208019033626 -0.12583754695467778
H 3.643293459748845 -1.6456508578333555 0.9193021015328972