13

O 0.7834607068619701 0.04026165807468382 0.10245061645634289
C 2.175163563140552 0.03906402461575771 0.05809707359346269
C 2.96643338171767 1.088447558037753 0.8780196624051949
N 3.930772699488164 0.03670826433220592 1.221693851957541
C 2.9666431670026485 -1.0130818483809492 0.8807311994326945
C 2.5702101807839637 0.036053581659477835 -1.3558952354745406
N 2.8993598251023434 0.03679660388451017 -2.4470070032370708
H 0.5165499636013772 0.037460679710069666 1.0282550765138123
H 2.341290648827388 1.4294100425307805 1.713774016480266
H 3.372855464006674 1.9498645556037335 0.3535622113337987
H 4.282433290271124 0.03213587760161909 2.1716969280201295
H 2.3408032252819115 -1.356341200630391 1.7172295269867062
H 3.372505270259027 -1.8748432397851311 0.35186714324102214