16

O 1.0231999168370471 0.2747835887088219 0.05496881817310614
C 2.411237427899441 0.008017737265185815 -0.09831483410255862
C 2.7061286287157453 -1.45712149628793 -0.4087648907466396
N 2.690118991436002 -1.6036195075325859 -1.8669102963192112
C 3.0986196283305145 -0.3235642061148493 -2.4126616246371286
C 2.0478732915944518 0.7366849054841589 -2.544324984532495
C 2.9321710965936796 0.7188702870584038 -1.3357677410064743
H 0.7222362893060368 -0.17187683205359033 0.8426382646662469
H 2.956333608142563 0.3519431147677748 0.7913775742516004
H 2.0090080474364544 -2.1451391860602143 0.06648934603647565
H 3.7156722086878107 -1.7011656993366029 -0.0443065861949687
H 1.7577360667150355 -1.8421930397051414 -2.1827873306616357
H 3.9519277948329434 -0.3177919927576238 -3.067540803366107
H 1.0169850772172742 0.45116013059223037 -2.411286970543713
H 2.2211180543574227 1.526756446997772 -3.267745505074944
H 3.6589844228919133 1.5109920483729016 -1.2159336732385142