14

O 1.6542064576945825 0.27463616623209824 1.0743802260615039
C 2.5789807157412326 0.0752888023178135 0.33961404096043
C 2.9423794067775315 -1.2689352553487747 -0.2821841095972797
N 4.340374109281475 -1.1482396399509112 -0.6772175098776665
C 4.68411124020951 0.2482516358287568 -0.7686841737631859
C 3.8229463556882175 1.1397988281914113 -1.5921230056212947
C 3.614968036495411 1.0502448875575832 -0.09669619055746892
H 2.248845234718602 -1.4640156972208953 -1.111871914889542
H 2.7905697462373027 -2.063467189787413 0.45950346112553114
H 4.539876266504922 -1.6404172932020529 -1.5352755266561182
H 5.726474838304591 0.4901361710364325 -0.6240918789797626
H 3.078347138900555 0.6993691043824181 -2.253312531142501
H 4.244035930288421 2.082124579606494 -1.9442099915448274
H 3.803262760115389 1.9158307143394142 0.521206079025215