11

O 1.1454327171702265 -0.029736639054152126 0.10255656651503244
C 2.475113902423302 0.04961909887206861 -0.010201401900409527
C 3.159185497832643 1.2742811304018093 -0.06619863853840152
N 4.465395547846467 1.3303251375931957 -0.1738841325668821
C 5.115503724488947 0.17590539856617007 -0.23080843847417792
C 4.435065080253613 -1.0288180071696358 -0.17044823758281585
N 3.1135058485781997 -1.0984350955227076 -0.062046679818326504
H 0.7734822439912773 0.8631837936815331 0.13313262289713998
H 2.619825790887609 2.2172424166186016 -0.019038970801931586
H 6.1955694415825535 0.20892117738625302 -0.31822477137352606
H 4.9714673306698804 -1.9741754597873153 -0.21861511711612688