11

O 1.049001399014153 -0.02524722273799169 -0.071630784048746
C 2.4022921330640146 0.05834944670618435 -0.06643355886193732
C 3.107217208139654 1.2441520688941001 -0.057539662186120125
N 4.439179310905714 1.2688810285023797 -0.05762720191162069
C 5.056545964732334 0.102838976694984 -0.05932507535256287
N 4.473571717803849 -1.0913420886671672 -0.06692862102009182
C 3.151052596681715 -1.1181641430990157 -0.05999243509948807
H 0.6668140561375585 0.8588144019078914 -0.06321549491479712
H 2.59755172515534 2.2059044852219634 -0.06306706578876199
H 6.136076734007125 0.11354582886187382 -0.06155926388334541
H 2.654623451107328 -2.0846400027695315 -0.06498388699641577