15

O 1.072178010415563 0.03825078916512474 0.028205213525563724
C 2.4824638775242454 0.04462063611846422 0.09600204983656349
C 3.0635710876449203 1.1844468706843478 0.9557658194649491
N 4.3149588416573845 0.5998031008629303 1.3894914360783948
C 4.289896031660469 -0.7752514315556968 1.4334887944696637
N 5.144941959879142 -1.5820011673725642 1.9014813452337396
C 2.9897265170662157 -1.1983745388836955 0.7918471908598819
H 0.7918849941544519 0.7498814693944954 -0.554847785449885
H 2.914821126133982 0.11209577542007183 -0.9057139880098205
H 2.374575390459609 1.3896394166431036 1.7897718188051306
H 3.216593407293881 2.0997915831363367 0.3956557028274132
H 4.958666044487352 1.116263743631362 1.964867141927732
H 5.943073730563732 -1.0992199303574046 2.317589566688927
H 2.2789812355837213 -1.480474297162145 1.5859412992274537
H 3.1257075120739137 -2.0610822718387447 0.14634244831057217