12

O 1.2124333856702871 0.0310820107201051 0.7486409332273929
C 2.316736164378081 0.04054844346763093 0.29809141204775913
C 3.1372154286124494 1.2965650272605553 0.017636533268327016
N 4.362093407185958 0.7766004013067712 -0.5015520567879876
C 4.457928094376114 -0.586089532515555 -0.605005640841403
O 5.413449115651781 -1.193607033893382 -1.0221304372381357
C 3.148819809260608 -1.1538417926266629 -0.09429555116330168
H 3.260975992527266 1.8610569079780253 0.9517071248266908
H 2.591155809918709 1.935205169586169 -0.6882951015970289
H 5.1424031768501735 1.3494838153674902 -0.7928835937949021
H 3.319972355271689 -1.8192744553474853 0.7539262517797016
H 2.651400733087387 -1.7479020248228876 -0.865860086510761