12

O 0.864324380603865 -0.00036405782615432127 -0.06928280134400973
C 2.2202088814541856 0.050411010591792836 -0.06218440139589009
C 3.0523159316661204 1.140435869503676 -0.054638826718837415
N 4.337453001306507 0.6679221933151039 -0.052886163744597314
C 4.334997236832807 -0.6984166756298009 -0.05621126910822122
C 3.0336497351945995 -1.1071505318048804 -0.059077447276505046
O 2.5196292668636713 -2.370767901254488 -0.06457101497139947
H 0.5095348570309649 0.8971074818797905 -0.07404203265891832
H 2.832266824399876 2.1908440520461276 -0.05483999353375519
H 5.159834340044227 1.2442644985478823 -0.04358743220546303
H 5.255215115170357 -1.2628948995009597 -0.056504831776479136
H 3.2452267716755534 -3.0018655196039323 -0.0673483726253153