12

O 1.0670495394055242 -0.03919690490151604 0.0015663306501972232
C 2.407634829141936 0.10851841054216621 0.0036833237109919997
C 3.2306759822927575 1.208768069978742 0.004360026364358756
C 4.559022186053525 0.709035622519799 0.011676757389098902
O 5.712255771921472 1.4285029799706188 0.018128914876117952
C 4.50685815589077 -0.6588244094007762 0.012340814912934523
N 3.170216449361954 -1.0096208159952962 0.003157039870422718
H 0.6606977588290094 0.827806963564474 -0.002702107239899096
H 2.914635568521749 2.2441282631416732 0.008280119942437726
H 5.490088604630998 2.3663898651401802 0.02267323182399584
H 5.299516585891321 -1.3990447129331691 0.01257933441615525
H 2.7998240628998805 -1.939611325870429 0.00851752062128449