13

O 0.8747107809138494 0.11715502189677769 -0.11776568772336099
C 2.0758823144150567 0.07399938975335829 -0.09373925557536276
C 2.8613134674160348 1.374201765576209 -0.07290626351879036
N 4.293853361960756 1.2020099950378444 -0.054137434568211774
N 4.9535268186292996 0.04864144988161134 -0.045385579768495436
C 4.319953193716236 -1.06783948800408 -0.06244778738472966
C 2.8368388844370847 -1.2253589488629923 -0.08041733765746133
H 2.5086698399270495 1.9342859522648344 0.8031022023483346
H 2.5414108507360065 1.9373566885954248 -0.9593020622282286
H 4.877794977582542 2.0112905110009125 -0.03716388632510058
H 4.942307613868788 -1.9495860829280234 -0.05057336505115889
H 2.4837312769710924 -1.7958843184909705 0.7792675048346267
H 2.50642524051294 -1.7918860705994923 -0.9660628529757745