14

O 1.5460690317025714 0.13161209167622698 1.0541675520035838
C 2.500793127331216 0.11086634431229957 0.2978570419742549
C 3.172721403052655 -1.199454073493244 -0.06211093239486038
O 4.056987195856711 -1.1415842311906617 -1.1652859969927942
C 4.923370994736845 -0.04599105574055513 -1.0584328621847765
C 4.1499116800935045 1.246212415039076 -1.1742597888193385
N 3.0549986851660518 1.2314952666315417 -0.22692704652915083
H 2.3903281678459414 -1.9165832444245132 -0.30618589515626504
H 3.6912152443806074 -1.5552987496826203 0.8337725428262662
H 5.644431352379787 -0.12606433344443088 -1.8711295694977779
H 5.462329212366416 -0.0797699403032409 -0.09987915149320156
H 3.767433309396273 1.3507581334818335 -2.2033328499164293
H 4.80116113942893 2.088122893594976 -0.9665833184639036
H 2.56731989745857 2.08481414693305 -0.00920096335979414