12

O 1.108467554322809 0.09796808289854109 0.4818303639901017
C 2.24970029702576 0.03495940212820368 0.12323218586521262
N 3.1578374111542784 0.9570208800026226 -0.2983308231827254
C 4.235644969390954 0.021408338504141197 -0.5630720404956089
C 3.3083745979508774 -1.1061230478677517 -0.04273553066076046
C 2.980603781318418 -2.1804957141580585 -0.9340001381977017
C 2.7036033732880664 -3.0778646572914337 -1.69404637988428
H 3.0740965910274194 1.9475951148135435 -0.4353581340848737
H 5.140817142703379 0.19152930617947633 0.0377029618714833
H 4.494754454678052 -0.07851749273282967 -1.624717934378581
H 3.6073463376742088 -1.4774583050990873 0.9351829450435882
H 2.4540341205283727 -3.8673038668877484 -2.3610493660672183