11

O 1.1213262610260084 0.11985090312672457 0.513867292708925
C 2.243383905189487 0.05455021758765966 0.13185692720799658
N 3.1602140113882804 0.9715432743093059 -0.28211195358981045
C 4.238521753580067 0.024888352657037826 -0.5737896570134199
C 3.2905241783653705 -1.0911660087070694 -0.07255643586014211
C 2.944022813781232 -2.1226971870131974 -1.0222266151810926
N 2.673788290920591 -2.931500947101533 -1.7878247614220373
H 3.0989235983816505 1.9685883422582637 -0.36752362915904574
H 5.136630707393331 0.15846956207668098 0.0380026124558319
H 4.497587099523766 -0.04651875651470133 -1.6327638370216593
H 3.5895097480926412 -1.5372533026364084 0.87935947787731