14

O 1.529341707266854 0.14133070442496318 0.806690898206527
C 2.5270290971191565 -0.05800997341205702 0.14733992076215144
N 2.8167361834990032 -1.2033887066521274 -0.531392355896183
C 4.162197209718066 -1.2808391355424225 -1.0601345769404338
C 4.675671897998476 0.13971146268311835 -0.8962812059320795
C 3.891111314401599 1.2147323675304884 -1.5428408728001979
C 3.6517062496195867 0.8922755571054095 -0.09518532638024049
H 2.1845025875363855 -1.9775222816339753 -0.5118554783950787
H 4.165996823509194 -1.6086262192989214 -2.106188553035021
H 4.774174826761454 -1.9872235719280869 -0.4844765071165114
H 5.734972822835755 0.2768831013155741 -0.7383066647390342
H 3.1116279315219293 0.9451232254208073 -2.2596981771093554
H 4.396107370763898 2.150742348497936 -1.7568380990523096
H 3.8892113614684143 1.6198920637325698 0.6760550007817449