13

O 1.639736265184531 0.3612980991406423 0.9342069958051216
C 2.585382082721949 0.012115040273625255 0.2768378208724684
N 2.7325829500753755 -1.1849406160084552 -0.3660676207796151
C 4.00085344309484 -1.3444918925406986 -1.0379920033631804
C 4.599674295885273 0.035842722166099454 -0.8753708219659693
C 3.8329221380807623 1.191591059261804 -1.3686067054079913
N 3.763440972019078 0.8079125886734121 0.04501559263836472
H 2.0194470871083734 -1.8837634179227 -0.3073064780770815
H 3.8700382082495555 -1.6364360569812302 -2.089548379048767
H 4.625788001308718 -2.1011257436941615 -0.556583230933026
H 5.66403039786798 0.1103777096981088 -0.7271278371817022
H 2.9622013624640524 1.0124808014676487 -1.982090655656196
H 4.348513850742164 2.133845903643455 -1.5543530571469684