12

O 1.381551049855363 0.09011992730935656 0.8189050718649752
C 2.3526494257456134 -0.12019163542860654 0.13287167512082676
N 2.7349446207827968 -1.3242552731458617 -0.39596532927903744
C 3.990654133503988 -1.317553913439121 -1.1050930834623265
C 4.39282317683338 0.14006060289009475 -1.0782544505434624
O 3.4510004372175302 0.9754354225171026 -1.7302321083442198
C 3.3881567851022467 0.8703470144101597 -0.31009401245096774
H 2.116299905057321 -2.112950355428468 -0.3619043570428287
H 3.8955268866170676 -1.691628269002734 -2.1252793059546655
H 4.7439598357733 -1.9247496681044 -0.5832542670996647
H 5.428222908237891 0.429789422587878 -1.1555959330248395
H 3.5670567034319873 1.78118991819751 0.26191885554191563