13

O 0.9132262942035207 0.025421102343553183 -0.07132272250779824
C 2.1280156599994524 0.03659915470840042 -0.07526227154001629
N 2.8550455552303284 1.1825896592050031 -0.08787160143979521
C 4.300125472281154 1.316164783600387 -0.08754065918582175
C 4.9575914374586745 -0.014864908104609807 -0.08858160034812078
C 4.243609128875532 -1.1414220712079042 -0.07070879602023582
N 2.867309809448231 -1.1299914477831021 -0.06866369116884863
H 2.290763562069027 2.008680507505654 -0.08713668140582075
H 4.622308619360247 1.905409441430632 0.785571356277845
H 4.620605330725698 1.8902660452429592 -0.9755938153704586
H 6.036425330656876 -0.06399428909420014 -0.08924040413675546
H 4.700194169128425 -2.1171072565068383 -0.06879490725229076
H 2.323761679134553 -1.9739523492595625 -0.05966963816709522