14

O 1.4086743580413226 0.07154234722660059 0.995638450348607
C 2.331840842911979 0.01789190793163207 0.22245472557135165
N 2.822391004632327 -1.1534952024341194 -0.27063287697751803
C 3.9717904316183392 -1.337994844673055 -1.1237493150345104
C 4.809373461825674 -0.08080443453166161 -1.0979023955219738
C 3.8815964268524774 1.106861267582465 -1.2493300260642135
O 2.9392899858123616 1.1583678454119588 -0.18709338157169683
H 2.3097309726223436 -1.95337136253507 0.054700080645441004
H 3.6615252359789805 -1.5553631533621008 -2.1550464695193483
H 4.5512510850000325 -2.1910414312763855 -0.7730959964638022
H 5.545136950621739 -0.09048898888678078 -1.902362895298303
H 5.345841365563634 0.0021439543817378965 -0.14954078469947182
H 3.342544081543726 1.0601178323901606 -2.2002261122556805
H 4.415676998177578 2.0496691278583103 -1.2035503929254678