13

O 1.0722479273560415 0.0791337381129808 -0.3691905736949682
C 2.254777120841484 0.08422388966364866 -0.1031355321431156
N 3.004619308846693 1.2224148307452554 -0.11693618759705154
N 4.320293352363677 1.2912307057011287 0.3310305820941517
C 5.079306423765228 0.15487540819996934 -0.16752484197337417
C 4.3596827312444155 -1.1348647075626301 0.050135007289106456
C 3.0371581872139832 -1.143322796548533 0.1495968131469432
H 2.5551437609763 2.0966142627979028 -0.3500243990126399
H 4.312439421744275 1.2382069265603346 1.3493128939256036
H 6.053369656444886 0.1635090938430268 0.3369932016157212
H 5.291562486440394 0.3043993996674999 -1.2381102394233292
H 4.9338546418868 -2.0607797476048173 0.11312221568059425
H 2.456944073498036 -2.043377245195873 0.29778494951460216