12

O 1.1896096690337747 0.08105715959517658 0.5357223679909942
C 2.197585730724203 -0.07718407419618899 -0.0752394853826932
O 2.4370533755843127 -1.1816260204414724 -0.8263700624605408
C 3.808228583050073 -1.2619400407810706 -1.2160106269783864
C 4.398732854838599 0.10432586969409618 -0.9483318235144066
N 3.7200566869898553 1.2286577849891587 -1.5563403359591046
C 3.3716654324066417 0.8489424725170509 -0.18077053660331163
H 3.8565019655776203 -1.5460816764124685 -2.2645093917151367
H 4.309573698336603 -2.0230027969951716 -0.607109426010446
H 5.460921340163219 0.2054286175919484 -0.7626503801599248
H 3.0081337293252637 0.9281402298716122 -2.2149754617521995
H 3.5392105300692673 1.570701256632704 0.6006912152490835