16

O 2.1870777149278884 0.5435982865894018 1.2491213486606687
C 1.9241485205793791 -0.31457326327229046 0.44623861539018667
C 2.9237489844503055 -1.2419503939472187 -0.2077184178892626
C 4.146751445823487 -1.4990156675307809 0.6741010230627527
C 3.7583746881228937 -2.7693984005676535 1.4220517582832084
C 3.0027854402481675 -3.5504913740504342 0.34768183950487075
N 2.331134133190945 -2.5493173703579326 -0.4738272471501066
H 0.8670881696908885 -0.46866118021012493 0.11190269256240838
H 3.2148365664042924 -0.7394140972653712 -1.151254006482388
H 4.350633797137905 -0.643319327726054 1.3215762154166242
H 5.023929964970905 -1.6797921697612712 0.05099588426355433
H 3.0928286481755856 -2.520856116321457 2.2578887340309444
H 4.6135837281669545 -3.3093207725604703 1.8302727207231442
H 2.280053025210768 -4.266940492363217 0.7592326958453872
H 3.7092561153512995 -4.119410730775592 -0.2633056373195961
H 1.3304894415837043 -2.5383070185592436 -0.31247628988883164