12

O 0.8770846409456065 0.0934716487510637 -0.09362550240184707
C 2.201211722738583 0.05876947878771321 -0.047453515658909776
C 2.9043589439811908 -0.27812926293961177 1.060747542235287
C 4.350517559480288 -0.3179662346793947 1.1287459235459798
C 4.63662579667453 -0.6858413380130872 2.4053325509272465
C 3.3533088997126286 -0.8555520772539983 3.052923622496865
N 2.339449886175931 -0.6169663783235881 2.2771091801795524
H 0.58120511248021 0.35189870788161653 -0.9689382267053707
H 2.737986532331453 0.3169779329139446 -0.9627366125380926
H 5.042808980470415 -0.09268001227144688 0.33398180671360717
H 5.60374987952651 -0.8314269013590966 2.8534644732459022
H 3.20802311652538 -1.154101319757534 4.089038136067271