14

O 1.947558199866743 -0.9426807491978652 0.6236420667495572
C 2.3141936963818304 0.1994979903310243 -0.12028411985784467
C 2.928502122582109 -0.23758695057356438 -1.3975726087174443
C 3.9495589817091306 0.2821433929934176 -2.141185985950911
C 4.066187945773365 -0.5030699953096518 -3.3196493580109863
C 3.1065579015583924 -1.4810336188873774 -3.242388425683675
N 2.419172759897145 -1.301716721253872 -2.0881176810191477
H 1.389222945469191 -0.6635020861971355 1.3580883486143593
H 3.040807900819315 0.8249943203032527 0.4204499449525664
H 1.428125095128101 0.8253985726027252 -0.3154382455271214
H 4.555674534251239 1.1393811855706837 -1.881413623570309
H 4.776607907168834 -0.3755148543273687 -4.116158818735292
H 2.8707993446569278 -2.3013526063818834 -3.9090719362773982
H 1.7158929240914431 -1.9157162383589612 -1.7048135695060633