12

O 0.9321682588357819 -0.006916900620838641 0.024479973136750897
C 2.2663010144021194 -0.061124413916376547 0.00556866736290756
C 2.945135355234047 -0.7090744113003298 -0.9599293830974059
C 4.386829388712494 -0.8290772866185248 -1.0824287112312576
C 4.58440413504206 -1.563380829184255 -2.2051659242046178
N 3.38450643403658 -1.9351359248039612 -2.8290526799709443
C 2.427610567180903 -1.4366384703785289 -2.1131232955894004
H 0.6382742176633366 0.4966427235770642 0.7898374295632014
H 2.791895944926755 0.44783699479169997 0.8096185730392076
H 5.127837582857321 -0.4190926324395571 -0.41483885538599374
H 5.53136497256005 -1.8683700418761182 -2.6368794094291736
H 1.3837976644809449 -1.5635296374592373 -2.3557501254165683