16

O 0.9138550275103631 -0.31752490357688823 0.2474887721407874
C 2.322454450765098 -0.17348169857671233 0.15471263130640472
C 2.76314791276918 0.906094277938899 1.066807767898489
C 3.7208842143892453 0.8304916204546847 1.9930460962776806
C 3.931090862312669 2.1566489992208373 2.647812205221381
N 2.7900047542858504 2.9330760392495234 2.1854708006614163
C 2.2067004978573643 2.293120473915935 1.0157406091392134
H 0.623184307005074 -0.9091638797628308 -0.44618988687708405
H 2.609941463761795 0.08802570581005852 -0.8710783141332781
H 2.8382542935336748 -1.1133129289128612 0.4155162413350314
H 4.295488738718573 -0.047139584869024954 2.2362497102031234
H 4.906943100698973 2.5806662621755168 2.35582056028065
H 3.9413221835387007 2.082755648669526 3.7468032970881846
H 3.0122448415219845 3.9087490804854643 2.0293986560047585
H 2.488677519123632 2.7664303549537888 0.05924907565228772
H 1.112827990727242 2.288192657268846 1.0492756592596102