14

O 1.9749041471952125 0.43054652860191744 -1.3771277461230156
C 2.392724891354448 0.08430350572881598 -0.056660127190960134
C 2.8350327060564027 -1.322968843765782 -0.014529021237589198
C 4.1135507479915 -1.7681797397446832 0.21360077517666243
N 4.110208873607402 -3.130131231276196 0.1609552549328962
C 2.8506266688558735 -3.5778803737055944 -0.0940371964180696
C 2.0366531148876468 -2.4831991470419683 -0.2111995569131981
H 1.5745326830578767 1.2985769621177938 -1.3397297401396249
H 1.553870057333301 0.2310150070848943 0.6511679097641415
H 3.21400581668488 0.7406017217240326 0.2756500508146075
H 5.022427123869462 -1.2120110883886817 0.3974086752406514
H 4.9194496824566665 -3.707795833441983 0.3048182624829329
H 2.632303668358159 -4.632889926519071 -0.1662014410984981
H 0.9736666619165778 -2.500003108974553 -0.42222269422355313