12

O 1.1687461097176541 0.3443422968453905 0.39718304942609267
C 2.3240124959132533 -0.2973106992903616 -0.0594073919587187
C 2.8119128143055776 0.43076400295974854 -1.2653748022027498
C 2.357355302911893 1.5214200919079923 -1.931726211999823
C 3.3074408399017226 1.6590784049915779 -2.978010993312119
N 4.231626513095221 0.7532547539028991 -2.93547750401568
O 3.922178755574188 -0.026415292254570562 -1.8350975875860198
H 0.8446850681316939 -0.11792623630341224 1.1652695287286676
H 2.136223741987343 -1.3421220299243892 -0.33950356462156084
H 3.127946359719535 -0.2880866124735036 0.6988924598101102
H 1.4894074225942502 2.1113980242375674 -1.711043406153246
H 3.331973981020185 2.4010008223283337 -3.7614266544351267