10

O 2.4223575621117317 -1.061745466934941 0.4418436055791345
C 2.242501470249663 0.0208795602034478 -0.03801225074088604
C 2.974171839490976 0.5460719222168038 -1.2010322880500792
C 2.8633353078966826 1.743070288337616 -1.8348750547927555
C 3.8271402772292014 1.64457696941046 -2.85796279566289
N 4.433967337172392 0.48928292911883053 -2.8372462686988222
O 3.9035448149176384 -0.2039812340547909 -1.790196173320618
H 1.4992457023522825 0.7304831400832641 0.367883047604678
H 2.2055282283598423 2.568247224517166 -1.597680965515818
H 4.096454163172391 2.3641299373018216 -3.618416535712559