12

O 2.2902093673581625 0.15839914545605338 -1.2033593996601901
C 2.6750436349714835 0.16732447927310004 0.15070732172443807
C 2.890743201860201 -1.2450931087305042 0.574818215319497
N 3.268063073883236 -1.516041625239525 1.7987178283308334
O 3.375921685040099 -2.8828985886758587 1.866250131518069
C 3.0752258021262393 -3.4065923249802355 0.6717281370075812
C 2.7592459920251553 -2.423510363467955 -0.1952425563506623
H 2.1417780173982863 1.0607794967261583 -1.488538240492328
H 1.9051139104668358 0.6107329145577114 0.7878540921491171
H 3.5977560028645947 0.7314145386619441 0.3022919254860022
H 3.1201611486839207 -4.480064557442087 0.6021609226359844
H 2.4607076692681735 -2.497935916914541 -1.230548507013503