10

O 2.42904170710404 -1.1458199487634992 0.39975900541014686
C 2.1826949218358016 -0.013358955605090837 0.0868369954482775
C 2.8921102082142576 0.692594882964287 -0.9958575594118242
N 2.560360880966073 1.9260132037498074 -1.270393392582274
O 3.3668741210918443 2.31303763839665 -2.2960318782873927
C 4.165906460528885 1.2933161611494584 -2.621733655375015
C 3.925246194020902 0.2268116962844425 -1.8401102574330575
H 1.4067295310568566 0.5986127594606258 0.5953307176292738
H 4.854762563635165 1.4894699570544385 -3.434106531158729
H 4.386600393859864 -0.7437159049540507 -1.8378117299442231