12

O 2.411546963128574 -0.9450067949765228 0.9651188801352933
C 2.347593421343134 -0.06001793567422931 0.1587887562292934
C 3.2005589946707156 1.1568796208910752 0.19640681711186603
C 3.7960268023695 1.6765348773447792 -1.0887033418782146
N 2.6772578098541975 2.3244095582833295 -0.4965692309654038
C 2.7186450638997113 3.600602278905641 0.0292863193513782
O 3.29498130262576 4.525898327844963 -0.48380499692955264
H 1.6355103111764915 -0.0848014364385299 -0.6956177253212049
H 3.772964121648957 1.3086378396333798 1.1056819190851588
H 3.6058768353023165 1.136054914334175 -2.0135945819458816
H 4.757390087204045 2.170479438173521 -1.0122687204990752
H 2.111967878437937 3.6973246534282365 0.9509643588615705