13

O 2.616748881283078 1.207773844549665 0.03407275772335761
C 2.1748584601969227 0.09014037228580381 0.03152002432155341
C 2.8971482513932525 -1.0975997947834328 -0.5555274499371271
C 3.4288602245298883 -2.026157168881898 0.5622642276891352
N 3.1366979589770843 -3.395503072224232 0.13447364047871638
C 2.3490726048251096 -3.2834071814315546 -0.8588099344545387
N 1.979985596814166 -2.0069767143671315 -1.239107248402789
H 1.202376074096747 -0.15805159147395065 0.48468189951975593
H 3.696284435548643 -0.7414870830458118 -1.2058071154364642
H 2.9210063178786894 -1.8432226668282745 1.5210275646905365
H 4.496891456671463 -1.892459337285832 0.7346312476613683
H 1.921759341789623 -4.133765196620188 -1.382053103239773
H 1.7659847356352827 -1.8381180782642903 -2.2101730064695246