15

O 3.028124361447002 1.134086737250923 0.21902892332453006
C 2.2802011457648304 -0.051266292103462105 0.020590521996053907
C 3.2195684107615588 -1.2259388120672539 0.12942464907171145
C 2.549459556579843 -2.5580564792920146 -0.29239363688416425
N 2.972119288799476 -2.8004530418845186 -1.6686351795457484
C 3.9161647596715503 -1.9823264540417587 -1.8903955730493636
N 4.293539548044237 -1.1467555707258918 -0.865244073614025
H 2.452681042524754 1.8852362554159932 0.06710707448787374
H 1.806387781035297 -0.05806320759009476 -0.9723005736436221
H 1.4888344246391607 -0.16243551586585792 0.7720205508049535
H 3.635805345417287 -1.261191522495488 1.1393577135149229
H 1.4645059930290998 -2.515130954110907 -0.22149541822398056
H 2.8875567984780792 -3.3893547048485284 0.34041485613797995
H 4.45938238136654 -1.9371547335086432 -2.839211980290549
H 4.656755212271034 -0.23170046622533172 -1.0681802373078755