12

O 0.9996266007662454 -0.5967768469164022 -0.10968091955105716
C 2.277563763072418 -0.0037027329560252228 0.0623678869466453
C 2.738873668491856 0.5834320758318833 -1.206415816084748
C 2.9140904369250453 1.8424194765070019 -1.6607573935115745
N 3.378050998287196 1.8106766717199168 -2.952179194391275
C 3.4639153872732686 0.5507233024766928 -3.2246680329178625
O 3.1057330639472647 -0.2630709114574115 -2.222214592369086
H 0.8080229604619915 -1.1345426216656063 0.6504720312471282
H 3.0075644163915287 -0.7547407707631655 0.40387312274261533
H 2.246517694014437 0.8033601569800762 0.8111792179229307
H 2.7261409365585236 2.7696909916849375 -1.1444143837066558
H 3.7964323505840065 0.0918601022421952 -4.140310246744727