10

O 1.2453001816197669 -0.4282969887418576 -0.7190824888285998
C 2.174950197957446 -0.04512676212031452 -0.04366081820775056
C 2.9127909198762456 -0.8763314329387971 0.8947984079124628
C 3.962065895118579 -0.6088777693613715 1.709971635393066
N 4.298253500374795 -1.7340956411642032 2.4050407802208773
C 3.4599776675592153 -2.613619742469438 1.9837444156091424
O 2.58474870645951 -2.1782800603372268 1.0807125989709716
H 2.548817591480187 0.9931386092012181 -0.08820659295531993
H 4.499226151250993 0.32681300981283873 1.8354111933431057
H 3.3718978190943365 -3.649247447505603 2.2865590370295896