13

O 3.3560244201214013 0.815553920322882 -0.024234571952091284
C 2.3866887335456934 -0.18800423166064467 -0.20863611464520598
C 2.7802320470500965 -1.387586405161711 0.5759340737612791
C 3.9026271856196666 -1.5314137590606518 1.3628856617434724
N 3.842370108937822 -2.776054422820889 1.8744728837703466
N 2.7680461881368488 -3.4616048412951366 1.4935784953429916
C 2.1145405994599495 -2.625705550693464 0.698112414270714
H 3.10126216029554 1.591050822868591 -0.5373363248635851
H 2.287353800374185 -0.4537797065911349 -1.264437626099781
H 1.3972355196787185 0.16554436825626326 0.1225128574862835
H 4.708683566855105 -0.8425782320164799 1.5739422221975246
H 4.5088191989715805 -3.2150919985408057 2.4957375119186223
H 1.1866657827683194 -2.9358013341685134 0.24125455720001296