12

O 3.431305448868142 -0.23949988156243474 -0.9239287377832225
C 2.4119887624873404 0.21995307662497451 -0.05629812156456016
C 2.911225152269344 0.1706900542671762 1.3363272635332557
C 3.053155102437531 1.1797723593858436 2.2298085224853965
O 3.524680434387163 0.7176958687497417 3.388923349127355
N 3.716661086958947 -0.6378455431042388 3.289481658105739
C 3.354851826004502 -0.9550099804709071 2.075828067765952
H 3.0556370951316483 -0.33355284082161984 -1.8081984326404028
H 1.507631803538377 -0.401281102458174 -0.15164230691365677
H 2.112444559332874 1.2577442775629413 -0.30170204210957835
H 2.859659402451633 2.2432625211815127 2.185416594599471
H 3.4240968369044067 -1.986669076521058 1.7564872618661056