12

O 2.5882418368132387 0.8130388253941662 -0.9897568713848206
C 2.0723592947072143 -0.08597895207410836 -0.04028711939447459
C 2.712116501602105 -1.406870521363879 -0.2600141686990164
C 3.6320773331047413 -1.7732442444812833 -1.1775534147852196
O 3.9125739188138784 -3.0970054251010786 -0.9836713573926485
C 3.1373724118929776 -3.4482076838906117 0.0473425277822258
N 2.4041371088771486 -2.509894763218261 0.5209867638574659
H 2.1750192734007356 1.6664432529647342 -0.8493895225534319
H 0.980408844408034 -0.20658202995381622 -0.1413412924223742
H 2.271846943198277 0.2322171726633172 0.9884863241884416
H 4.151523151298858 -1.2721803723422487 -1.9741965858310755
H 3.198403637778694 -4.477323019717574 0.37752946384333025