12

O 2.912958955868867 0.01437026290952555 -1.108956071361186
C 2.30351398941038 0.15473525044430028 -0.09094531808615841
C 2.909764368259962 0.713755441827697 1.1390219569655036
N 4.353017055230894 0.8358904238614479 1.1950512958317698
C 3.5873431045531166 2.051012894172211 0.9650622380137059
C 3.549743007453943 3.027936653575304 2.0144712434283307
C 3.4896159430670983 3.868689336450714 2.8649467731360203
H 1.2371914261505013 -0.13270631457086884 -0.019080264028731274
H 2.410336989614583 0.5171450013472423 2.080554267701903
H 4.712852850521844 0.5074913569930852 0.29340813364262464
H 3.566307060029989 2.4360118669366284 -0.04148014767243769
H 3.4527672536921274 4.607714914992413 3.6330197951192194