16

O 2.2285843308916964 0.6695767351006224 1.4636300988468849
C 2.1528643017974622 0.11785677834464574 0.17073643770295016
C 2.5309536778658006 1.1616036588329235 -0.8363276488765257
N 2.143526526666048 2.549747898984041 -0.652369949423539
C 3.5665161150342826 2.177440413616385 -0.5253309374577403
C 4.4749301042405945 2.692160504473283 -1.5571056334229176
C 5.759319544001197 2.9542633154742015 -1.363651789672178
H 1.8755890509564113 0.0397455675302735 2.0949506463849183
H 1.1222492555872106 -0.2221201004118756 -0.046396533453428965
H 2.821675857574709 -0.7475934902246654 0.05789809545798211
H 2.456615805175838 0.8136563673624853 -1.8650160585262894
H 1.7600130476333322 2.651267209385146 0.28761043858791574
H 3.9652390269479354 2.1375552255325267 0.48747771984376237
H 4.021086365396836 2.865723696419605 -2.5315729876380835
H 6.222756410692169 2.8105948910275735 -0.396374046982405
H 6.39110819623849 3.324768679310514 -2.1668367070143533