14

O 1.0834970380145907 0.07884196282951914 0.16951069828237394
C 2.452774691731648 -0.18064530304339835 0.03563563281266529
C 2.7058771771382695 -0.7500505060793952 -1.3468808947343451
N 4.133261371282074 -0.9676573510590836 -1.6789796916567148
C 4.0220710614142146 -2.4363955197710494 -1.6098963849820618
C 2.513696943525595 -2.2713431557645682 -1.4519762796231577
O 1.5822352352693247 -3.0156023308411 -1.4226914308884517
H 0.8642162524159241 0.21490492124905533 1.095197463833548
H 2.8128003098844547 -0.8767212099834054 0.8098306491030488
H 3.04419312051124 0.7487023932057606 0.1293611559639642
H 2.155764999616111 -0.16693491963264415 -2.084830363572083
H 4.776512494386873 -0.5598463886947194 -1.0169114135019472
H 4.490352126126348 -2.90566301221461 -0.7291677888706447
H 4.345662889214075 -2.960536295300187 -2.501808307934933