14

O 2.058924652900759 0.9654711452395728 -0.8235590537993509
C 1.9603756615295016 -0.06997553154439003 -0.23570283402415032
C 3.0891801865290014 -1.075603231881695 -0.07735264772829503
N 2.563977608486562 -2.4372985361944095 -0.004151795152364251
C 3.108451077384154 -3.1245528056979497 1.1635442621514471
C 3.7705515568521863 -2.026149280696527 1.933024960955015
C 3.7637398157483624 -0.8957118787634332 1.250755135327436
H 1.0248744790192772 -0.37947065732281954 0.275858418932942
H 3.7892089769432324 -0.9003753174301108 -0.9127811371144409
H 2.6808606727515922 -2.9426650738720537 -0.8686078128253695
H 3.846297364151934 -3.910951605020607 0.8900588016062794
H 2.324349916824717 -3.616831326747479 1.734652700658221
H 4.199720559720586 -2.1717211407443098 2.9151777195137902
H 4.1884863989110075 0.04841944454757412 1.564962492487239