13

O 2.0817806729179056 1.006672504252603 -0.32511895339261787
C 2.2304787843657943 -0.07776533720073268 0.17247214042280334
C 3.057520534488678 -0.28796100775018924 1.3834734167416516
N 3.2075265455614757 -1.4431666929325515 1.8997765392124333
C 4.076377158602065 -1.2612149634310728 3.067124720115836
C 4.415891568117425 0.2565538491185315 3.140773760131045
N 3.686573186088985 0.7525382027701853 1.9840467120517247
H 1.7753417729305963 -0.9985015443645079 -0.22269860587257453
H 4.968465833769077 -1.8711271517878179 2.954555421936813
H 3.5612210351933444 -1.6157623147032611 3.958681766409266
H 5.482835150469599 0.4536951480482695 3.052849083505189
H 4.058201205362944 0.7165565406763397 4.069210892568326
H 3.632518791419065 1.7000346739161625 1.66592231703273