13

O 3.304900909052914 -1.0330587444463453 -0.31373882981908136
C 2.2573946123607365 -0.10591682879526211 -0.06759103521603632
C 2.7032345591859266 1.0345169659823792 0.7802254979154079
N 2.3196689266799555 2.2870589096903826 0.6546208064090914
C 2.9514659912554655 2.955247751076932 1.662709758952222
C 3.7332548814589988 2.1094736534326657 2.3941365713899825
N 3.5607175596375216 0.8770486025490692 1.8184240864994006
H 3.9545258241388495 -0.6050042847942313 -0.8738164077360008
H 1.4784714486981172 -0.6853772046100177 0.4501280167221766
H 1.8228283895788318 0.29439109355552934 -0.9864883848060871
H 2.821419651419291 4.022486188333787 1.80304244659014
H 4.380086846162569 2.2658815077088743 3.237641329781849
H 3.996445429397298 0.014264170649369875 2.0733275045309694