12

O 0.9699512840147847 -0.36873500367789935 -0.10627094541927545
C 2.3025824918426467 0.10272805754545397 -0.06714192221763268
C 2.8058665330204318 0.26801949012498366 -1.4509026489365078
N 3.2149436221174152 1.3623511489572513 -2.0113794593452314
C 3.58682256933295 0.968498211712192 -3.282713627648951
C 3.376976663003084 -0.35060262216208776 -3.4196701566910406
O 2.88167593660384 -0.8126053918365825 -2.2390104497216163
H 0.7148189707817014 -0.6313173087485562 0.7832323766899746
H 2.948941860488725 -0.6182386231614222 0.4629866434639138
H 2.3937673881638215 1.0742413076191464 0.42045399955593776
H 3.9795917953848727 1.672590430144896 -4.000350845616387
H 3.5105097048203255 -1.065431348750679 -4.205305838191484