11

O 1.5581512265563544 -0.6195236777042117 -0.5520784406099979
C 2.2371445077590546 0.23372961340172416 -0.04798625648412446
C 3.0176381323837 0.009879443386757586 1.1793020630070472
N 3.7304944833756113 0.95640813275494 1.6859665781328952
N 4.361606050855419 0.490524523831918 2.8468845557053823
C 4.017548556602241 -0.7285458148179936 3.0364344543469026
C 3.0909777107782093 -1.2268773786990033 1.9819307613969508
H 2.33635026654116 1.2524600116315217 -0.46751490849826804
H 4.394728555684794 -1.2983714416561898 3.883270889637963
H 2.1234625799944324 -1.555439476217072 2.3806948929306717
H 3.493610963380583 -2.076762767686674 1.4187734809198966