16

O 0.8884371613109556 0.15090408198742075 -0.18386521637248748
C 2.282175603165529 -0.09814428026277429 -0.19135185217582343
C 2.8737823669608265 0.3621366909621536 1.1134519585052107
O 4.253789507295248 0.09140917996959612 1.0187059433380594
C 2.559857142358268 1.7842926985236836 1.618651054636746
N 2.462945593114589 1.2363008924091614 2.9789680607662286
C 2.2326919793528353 -0.11882212450071956 2.4352091849242155
H 0.5183189529988926 -0.15264649886586637 -1.0169495922659506
H 2.7801129646843123 0.4482029605417369 -1.0056648890645474
H 2.5066975327711334 -1.1636140011096738 -0.31306647047856595
H 4.661200962442494 0.37211818754425974 1.8459995593545888
H 1.615830055280297 2.161233486229822 1.2078082035556645
H 3.349396403555282 2.5276398559886086 1.472418105890478
H 1.7109316629387838 1.6085054888201873 3.5490709363872206
H 1.1816485552812224 -0.3867236631371587 2.2954473731919123
H 2.7649530755813485 -0.9209254402399567 2.95415428216373