18

O 1.8632068582714876 -3.52276965608762 1.6196099255791598
C 2.9334741732524865 -3.278207454530296 0.7344946927551083
C 2.5151702376467235 -2.1854717790782052 -0.21691467811182608
C 3.6137527677299 -1.7447295030959593 -1.1715151785258486
C 4.0877416153953945 -2.8255735396497905 -2.1110981248787835
C 5.410409371836682 -2.7430449773651424 -2.7503092086628182
N 5.142728296292603 -3.7495702729487532 -1.7172795889696149
H 2.080839857280253 -4.283987003134789 2.163543802518528
H 3.1986391796397418 -4.18195575919408 0.17490330345611863
H 3.833580838423677 -2.958124178588026 1.294448695361907
H 2.18126230397532 -1.3279255559421115 0.37383257004913684
H 1.6453493548245528 -2.5300851522481507 -0.7839534806644679
H 4.47308086224735 -1.3582332130049142 -0.6109132940695362
H 3.245924320843749 -0.9006562577406859 -1.7664602635264106
H 3.290332741949154 -3.3084546132705785 -2.672957588240766
H 6.033980168716791 -1.8836547700284498 -2.491859959868771
H 5.5664034079011 -3.127116328451317 -3.7418856074742664
H 5.553088790902301 -3.4470716994450283 -0.840690923841609