16

O 2.4995555231327287 -0.7599720941822474 0.2961219686160295
C 2.233611670902092 -0.014067194653960172 -0.6093977481908461
C 3.005384607653072 1.224699213461737 -0.944648816634033
C 4.17892489876511 1.503627437815184 -0.027276582076898485
C 4.939261723009965 2.7316606020144802 -0.42983917196635973
C 6.385820239734227 2.8432498508295225 -0.16725806139272595
N 5.895712586658545 2.6728861573642844 -1.533652296360653
H 1.369047844960235 -0.22311250576807162 -1.2738921281191744
H 2.29429383120392 2.058715502155893 -0.957079722772195
H 3.3280210776968935 1.1258212845456403 -1.998582569783988
H 4.847162292910833 0.6419220966337928 -0.015842285565384456
H 3.8111400997562344 1.612113860298147 0.9941076687690509
H 4.361519094335857 3.6502674279336262 -0.43193764461883205
H 6.8697347930518395 2.008698703119796 0.3152149536495517
H 6.824493394817912 3.809889540216424 0.039134546678323785
H 6.026310228404378 1.7142782095474773 -1.8261383254036772