12

O 0.847072101126063 -0.3107033434328276 -0.2380194060626428
C 2.031509297591985 -0.29919050811471637 -0.054240979748771734
C 2.8916124452347454 -1.4346095179349778 -0.24678080917617626
C 3.650890316410141 -2.3677668789521555 -0.38608978632335483
C 4.5156223937318245 -3.480812665031296 -0.593106180626552
C 4.057605036622282 -4.834838317327897 -0.1535661509262737
N 4.1432047076312095 -4.520240489506026 -1.560570698477513
H 2.556982144892863 0.6139720014358123 0.2861985816491952
H 5.5816977049637 -3.2599910299418426 -0.561807266756958
H 3.0879849206885908 -4.886111690733765 0.3179948117865941
H 4.800284900263867 -5.5208474922354975 0.2229908506527651
H 3.222713489361239 -4.312225194952801 -1.9391065394928386