16

O 3.809916997564292 0.9926036163600419 -0.5553194646425039
C 2.94180398848519 0.22444699095227377 0.24760675455253922
C 3.38603597050839 -1.189370699038159 0.2999344383155454
C 4.439697401422331 -1.6777224171440324 -0.33063049910160947
C 4.908308722188786 -3.0827510998381022 -0.28081730915153397
C 5.796382351608717 -3.5426500746890324 0.8112073076240012
N 4.4210957906264445 -4.03210313214587 0.7159574370554326
H 3.4877487248908405 1.8899947665937156 -0.5920863182599392
H 1.9135419888849041 0.25648571511482404 -0.14281384335553032
H 2.898022618808814 0.6219381787283591 1.2700620031635426
H 2.7490899895867615 -1.8417142139741252 0.9106423799675705
H 5.022841642643529 -1.0147315951032694 -0.9567245006422022
H 5.06036028668102 -3.5387475053341495 -1.2572413235446291
H 6.032915472195278 -2.8210037737884157 1.585721311732523
H 6.56756969458817 -4.279176738344266 0.6119863365868095
H 3.8493712430901805 -3.5536388833822374 1.3996762110980696