16

O 1.050698956303124 -0.16820256947335485 0.42905783445627943
C 2.4602459931300356 -0.18147270353839162 0.37275512630408997
C 2.9516661533448545 -1.3621001264219572 -0.41015820526909963
C 2.127536157718966 -2.2586899564020166 -0.9531766661904738
C 4.430201274024508 -1.4268195692363157 -0.519728823909763
C 5.117518637848554 -2.133895189452602 -1.6081899290052986
N 5.117938854857763 -0.6696917345391697 -1.5797923521508166
H 0.7832153686425057 0.6030599290253298 0.9316529046034581
H 2.8929295905876415 -0.23973516009235527 1.3781656148663608
H 2.8551294756323546 0.7296186272371749 -0.08550237616860598
H 1.0534407074324375 -2.1435559818803998 -0.8513393013965175
H 2.5014181292426363 -3.1163279817112506 -1.4819412553789681
H 4.9525306744779085 -1.3543013683798304 0.43352917001815877
H 4.505178856785945 -2.626650267346793 -2.3582706014385764
H 6.074852403291917 -2.5960367980697594 -1.4288219114154745
H 4.422766828917893 -0.32916451441774924 -2.2328753706232396