14

O 1.0530012407417113 -0.1821972746672239 -0.2202651900280391
C 2.438419292804029 0.06850941936824673 -0.023198523180410505
C 2.898953120647932 1.0515957566108176 -0.9863291079074957
C 3.3001875835884236 1.8558903981379884 -1.7820354677439347
C 3.7911798300447113 2.824461819526616 -2.7252194669763097
C 2.89531323934778 3.923912119396731 -3.166160077494329
N 4.0076840970433985 4.217595225281931 -2.296599697585912
H 0.7851889533870658 -0.8304245185368117 0.43370048514074117
H 3.0274737249531833 -0.8482715212282802 -0.14891426885359962
H 2.633058436624226 0.4508087329454708 0.9861747470117393
H 4.545977370927898 2.4633697114412754 -3.420210315535832
H 1.8907505708086707 3.927862247560564 -2.7565678144942676
H 2.988220497899988 4.296409966956701 -4.183697476000338
H 3.6869496846863457 4.320599179219865 -1.3385330856599411