10

O 2.62699988219566 1.1882588435851325 -0.44190369590533624
C 2.455129796498007 0.053285159668191785 -0.10614122719374762
C 3.0945125864420935 -0.5849151027156815 1.109345960439383
C 2.1354727057130507 -1.3113318445621431 1.9194242635684886
C 1.3165353645770794 -1.8968574586829792 2.5740745979704545
C 1.625983971446779 -0.8425415511065826 -0.9299890556973159
N 1.0068839357317902 -1.5419176904535303 -1.6071887371716178
H 3.5753942567657817 0.21718723559521985 1.676433343349533
H 3.8784132230636974 -1.2632819573624412 0.753618851881211
H 0.5933967357182791 -2.4240465065984234 3.1607917371074583