10

O 1.2358478365801722 -0.29389058473719565 -0.5044398562914746
C 2.2702421607429097 0.015172824822737265 0.0028313753844856158
C 3.0836443755973897 -0.9654427591960443 0.8421563629179017
C 4.5092012991755315 -0.7717324699154859 0.7011964855783167
C 5.690493089522846 -0.5880926044997834 0.5434730246279945
C 7.0346303438522355 -0.38672156345458136 0.3825358919826786
N 8.165716235370718 -0.20753297571424686 0.23730119029649427
H 2.6990164267632033 1.0299092532006036 -0.08863255469572294
H 2.7844293304022516 -1.9825878033926148 0.5865286541241453
H 2.804038935289318 -0.796447349603591 1.8967718177025272