14

O 0.8523290712841771 -0.21765171812662998 -0.4940929957744603
C 2.220673583352133 -0.20015292210094807 -0.20482984467479434
C 2.660715463733215 1.1374345923148497 0.41807556412193525
C 2.3986565779966003 2.26237414676412 -0.5419300013124295
C 1.4232742989287104 3.1464425547709376 -0.4012098232035811
C 2.5124292659601277 -1.3002957206500603 0.7139688163059714
N 2.7908433777645936 -2.137084757593623 1.4464585869030788
H 0.6287953632794167 0.6414223044581406 -0.8727175569805626
H 2.8192634883488856 -0.3819300355721774 -1.116191212311795
H 3.729344549868575 1.0764241454364902 0.656848946351833
H 2.105809975725138 1.291469372195031 1.3429735771888602
H 3.0366915746925756 2.297737770494992 -1.4179772898223075
H 0.7690985478198307 3.142189418812793 0.47102131222703747
H 1.2591133966543342 3.9336359370405636 -1.1405840383174406