14

O 2.2463755958878937 0.6214787408846068 1.4886325212651743
C 2.6288932895416255 0.3706166224586085 0.14326928176903994
C 2.8958344309710142 -1.0877947719841632 0.004066809728058683
C 4.021131602510839 -1.5802163668908717 -0.49879367686449927
C 4.277047525892249 -3.0589470137977814 -0.6569451064939343
C 4.575512181155903 -3.4165663900216927 -2.042399112809917
N 4.816000003005812 -3.6913712553260396 -3.1268590012134703
H 1.9034393379238381 1.5111184575720513 1.5415297210586936
H 3.520088500461285 0.945093325160114 -0.13578231685136408
H 1.8233242953905187 0.6543453168428642 -0.5407239591717018
H 2.1034141676053264 -1.7429868017121661 0.33095630672304366
H 4.822605999947873 -0.9167025983177355 -0.8220792227626753
H 3.4080560108153097 -3.6382027153798506 -0.32726873525835914
H 5.131986231084084 -3.3660893203756737 -0.04650347029894272