16

O 2.6531656335998437 -1.2318363026547217 0.64463342913901
C 2.29863549091761 0.04044809984264873 0.13674657943494997
C 2.8889544801501703 0.17461165846515217 -1.2495101032144367
C 4.405622849551189 0.12379250902507773 -1.2555937470956517
C 5.005766618924185 0.22449797625060036 -2.6557896702756865
C 4.697225541905516 1.4820556031411345 -3.310467042402105
N 4.447939648582783 2.492578076189729 -3.8131306937215377
H 2.2917334590355503 -1.3170707918829232 1.5266525232392605
H 2.6813483848805486 0.8372623691209491 0.78193605452756
H 1.2015277719211142 0.14421149174105635 0.07331974067297854
H 2.542082219770762 1.125502779988462 -1.6871770597696856
H 2.4856548498471445 -0.6244932490139365 -1.8812297075079998
H 4.7313431013191485 -0.8223154190605433 -0.8119794118218605
H 4.806612488552983 0.9234773394834594 -0.6351646328207368
H 4.633973020794808 -0.5852727557469151 -3.292151405448698
H 6.098092412863266 0.11656507826370772 -2.612351245660427