16

O 0.8443893976805998 0.04387766989461282 0.10586706092544783
C 2.2539222614296612 0.011523666362308933 0.20117427359755788
C 2.822253927032017 0.01895252558677114 -1.2042614133216452
C 4.344531464415764 -0.039026255033993734 -1.2370693552402394
C 4.991840334323664 1.170861208323844 -0.6650073558165703
N 5.795458508066452 1.0824276721099917 0.2994290937736561
O 6.293624861453491 2.3190270446583523 0.6793127704603994
H 0.4777045798924174 0.07761552034473562 0.9874433820604598
H 2.5990562155560024 -0.8868488466636529 0.7284295031678868
H 2.632386735176829 0.8804809456498073 0.7512700270956567
H 2.4667903717156388 0.9137327855030182 -1.722982064468333
H 2.412861535034648 -0.8382740009089671 -1.7443432983448697
H 4.669083212656044 -0.1542021490005016 -2.2751335632802516
H 4.711631489587542 -0.9188647340015187 -0.6891851610908151
H 4.751765709218464 2.15299095429413 -1.0960089383086877
H 6.883968125569336 2.106569509447388 1.4014635820638992