16

O 2.3577584886000515 -0.785148419394416 -0.632582881193133
C 2.010144595607974 0.2281484293680218 -0.0885298913053386
C 2.9418884119808424 1.2110327180764588 0.5546650224896769
C 4.4054539535435495 0.846073100929552 0.4519821596426201
N 5.210194954066386 1.8237950960053744 1.157274529355754
C 6.604861189832704 1.8802184812124245 0.7751734790206967
C 5.660824678738054 2.9513248333089583 0.3754692730918444
H 0.9310754492776402 0.4854348296972411 -0.02357637033418393
H 2.6408408358260553 1.3203272764458143 1.6058177602262764
H 2.739545331564172 2.195719452600725 0.10174505419139422
H 4.696059741458449 0.753303955410592 -0.6004281528999704
H 4.567122132967149 -0.1319196856555702 0.9079759731595329
H 6.933540084409888 1.2105194087073177 -0.005313923059676181
H 7.3130845076780036 2.041311781558263 1.5753686243591225
H 5.368214687477953 2.9876039695534566 -0.6723282222728453
H 5.6697113087269475 3.9118337510397745 0.8847533215932677