10

O 1.0646197286516672 0.42130553050195035 -0.824256517091917
C 2.122860474510308 0.2183613312310034 -0.29914862702522754
C 2.7894150934870847 1.3086219232953276 0.5491354292798825
C 3.4637088994156504 0.8189831398991035 1.7412933559054877
N 3.9813383047079665 0.43779706388769585 2.6871214469501123
C 2.8593114029358038 -1.0157338818909252 -0.4457166012347431
C 3.5007345965479484 -2.030696376513631 -0.5637145481504089
H 2.0249750088710243 2.0425256883384697 0.8067349449909567
H 3.52867455964332 1.8122502680070471 -0.08690026074613551
H 4.052696080743337 -2.927408209104895 -0.6634807573949071