17

O 1.6482287666139783 3.4652592560262057 2.298771573519344
C 2.7925727452229863 3.1496516896966797 1.5248004284797263
C 3.030802977544351 1.6660359919156429 1.6385852811298198
C 4.242484839521882 1.1876208380268907 0.859422990755475
N 5.465153477254869 1.726462005789153 1.4104829360996574
N 6.553519598944293 1.6220217352891781 0.634068339232464
C 7.7041533951767915 1.6168936264313283 1.1655173254742628
H 1.510148598153481 4.416497477345158 2.2691490348057526
H 3.679274027561327 3.695595163172316 1.882887381554953
H 2.637740211051355 3.416060410786911 0.47042322225048844
H 2.149452399662991 1.130767798825088 1.27062244790566
H 3.134848581144129 1.3974135313766136 2.6996705251286257
H 4.197921950959014 1.5311298692174762 -0.18119390311799868
H 4.261843216224414 0.09001671270740763 0.8317765312670555
H 5.6176402338563385 1.4933653567933678 2.3932744900712506
H 8.573461942411086 1.5908531717535548 0.5146962617704419
H 7.869577489980202 1.6454476945564676 2.249248189248072