18

O 1.4019009219384737 -2.6207433696066063 1.7257135406757638
C 2.3606892027542115 -2.1093118964720534 0.8312602341464954
C 3.5676818561893575 -1.6699473217678895 1.6327440020426738
N 4.608703051041122 -1.1632737833469813 0.7856575455881948
C 5.809617851442309 -0.62629870219992 1.4227469129660482
C 6.642562287106078 -1.22421278753147 0.28012688605669733
C 5.414255303151434 -2.1110442964007223 0.020264600036773626
H 0.6336242595896825 -2.8946670086783537 1.228328211652856
H 1.9738781548058388 -1.2496821791695543 0.2643200577423581
H 2.6755649109488404 -2.8751078971946127 0.10249209778061144
H 3.9095424517927584 -2.521939004452576 2.255393793355366
H 3.2557886790738007 -0.8771750706269859 2.3253261712952185
H 6.033783541908949 -1.1264704342411598 2.3882566285749944
H 5.819079670606171 0.4516089263522768 1.5740292936406048
H 7.573605491787316 -1.7125116834732985 0.5314095900552032
H 6.815206764835947 -0.5072857609292583 -0.528319566004534
H 5.504970482121945 -3.09402628172306 0.5132524641889831
H 5.105737234613608 -2.272683551662912 -1.023708464388783