18

O 2.8235612023767964 -0.4340043893499762 -0.19857188972016795
C 1.9010454498745286 0.5715045170843144 -0.5672388585260348
C 2.6456626276172748 1.6164231722527869 -1.3567832419960755
N 3.6438265365484526 2.269373131560031 -0.5260910049283974
C 4.446224631188859 3.2151298530774026 -1.212443937434458
C 3.9522364159355394 4.627814459170979 -1.2820586756828645
C 5.115187792910939 4.273814581075246 -0.41001597198277845
H 2.4065521174231774 -1.0156323337011535 0.4385321834090854
H 1.4497913301139946 1.0360562828741386 0.3146187963304435
H 1.1006453803480911 0.15484954735957387 -1.1955347916243266
H 1.935260410493556 2.373182417852558 -1.7056482127641814
H 3.080709800903145 1.1508215080632433 -2.2528763584899747
H 4.220742001323743 1.5510734994698399 -0.09261035071135591
H 4.986082224383227 2.859900285465586 -2.1007009624883555
H 3.014381318539423 4.831292256661297 -0.7936460343049069
H 4.1338719726759745 5.198916767449704 -2.184551019392768
H 4.942345696847869 4.252421522608334 0.6534809154560196
H 6.105827260743946 4.60235379203569 -0.7132852222522972