12

O 2.355013687645699 -0.9295867126422688 0.5981182088829758
C 2.1600602030668448 0.16339505392487594 0.1371110575684475
C 0.809540931581107 0.5071805275478398 -0.3893499968371555
N -0.2325824584569168 0.7576348483504237 -0.7937933042734489
C 3.1644582471522296 1.2338708972348154 0.031611466692521094
C 3.1341398157571136 2.1868449439924174 -1.1455601400434618
C 2.7429614016556254 2.6815640219892916 0.1936998456777611
H 4.123897543851632 0.9389961148274153 0.43096210404327834
H 2.355782380069384 2.0426213389840897 -1.8868172031970711
H 4.1020028359913985 2.452503351815974 -1.5434637698245617
H 1.688433406807322 2.872953948386685 0.36702998992714747
H 3.425524653777369 3.301695478912565 0.7500135338979922