11

O 0.530183892372161 -0.9448081063653838 -0.12261159817332917
C 1.5839132354558365 -0.5948109601654576 -0.5784178662554403
C 1.7989982053773919 0.7890813052651545 -0.9955338723434493
N 1.9936575124766034 1.8831017861720312 -1.3338429034708317
C 2.750771091754407 -1.4994728208694126 -0.7562276659833329
C 3.163847723586721 -2.2498679487251425 0.4675687914306914
N 2.508943856601873 -2.922189532136373 -0.6242912681427563
H 3.493651145286493 -1.1909215389148813 -1.472174482506995
H 2.5994662013059213 -2.0511903124629844 1.374047084265521
H 4.2219822529473605 -2.460500595671086 0.5879786966835896
H 1.5237599417803354 -3.059775194023888 -0.4064230683969956