14

O 0.8621846853495033 -0.9692281240884395 0.22527189768606593
C 2.010924793326308 -0.6881274362917407 0.036742916777211976
C 2.901446582581707 -1.389403160197977 -0.9658127222223528
N 4.282812302785596 -1.373522265429859 -0.5444718871353856
C 5.194800877598335 -1.8102635982984598 -1.578553264870825
C 6.558786462127364 -1.9093033816759628 -1.082866251076022
C 7.682142660103165 -2.016498559588815 -0.6565759563546137
H 2.5124508607392704 0.14303558382710024 0.5816715344410792
H 2.8247967377068917 -0.8108655286178055 -1.8898458053658347
H 2.474357220533063 -2.3819641020639857 -1.173889324295442
H 4.408306998348191 -1.947227106000061 0.2814387438344209
H 5.1655654592483495 -1.0871333299009782 -2.39628631185095
H 4.919277459006647 -2.78164948153785 -2.0201452670464524
H 8.677425471205629 -2.0963715078372607 -0.2954157023601361