18

O 2.3720185669626384 1.1272375204027367 -0.11178135491230476
C 1.8899734966534547 -0.12076301299765496 0.3415209964021847
C 2.410162698207904 -0.33089920643520115 1.7385024898331856
N 3.8493758798184747 -0.41780175984329343 1.7389959091788336
C 4.416130107896365 -0.508504474647249 3.056460517087953
C 5.91429442884541 -0.6229372364093828 3.0575697720878328
C 6.677214349325144 -0.7576471132104884 1.9849729971536403
H 2.1964980314032925 1.209761309984873 -1.0592076561446477
H 2.252103096718513 -0.9333784724599837 -0.30045522429505495
H 0.7921475874266812 -0.14048156908447304 0.3531877792722384
H 1.9908102584766216 -1.2757056782334317 2.1290387789616334
H 2.0233466462040854 0.4750240890993813 2.3799360312516122
H 4.219586256707439 0.3938605878502663 1.2610364730792292
H 4.002292574929283 -1.4034255973280036 3.550727178085634
H 4.133946880778979 0.33407755887772544 3.708870809883951
H 6.370301057803519 -0.5698488615795625 4.042083202417845
H 6.2515518406686965 -0.8336400458324259 0.9944834197978525
H 7.75811833125264 -0.8229466979780373 2.0764061180343942