15

O 2.5709094290085526 0.1867995784398303 -1.3273047017231676
C 2.05980086359749 -0.1500060799335045 -0.04414777208201951
C 2.6272922163472914 0.8410054897987499 0.9438424857280318
N 4.068464415728667 0.7056048533668873 0.9985125276271707
C 4.687940686177012 1.716620394919198 1.8224794360080037
C 6.141686690118378 1.573787984565313 1.835562099298724
N 7.2906984864975914 1.482811118641054 1.8239536769535247
H 2.3728333177530687 -0.5256206818467227 -1.9415589982160317
H 2.3566591624242497 -1.1586669362104407 0.24616059097950127
H 0.9580174803855358 -0.07730936465878217 -0.02813993143480425
H 2.2133582119193345 0.635904734421506 1.93088396662909
H 2.307054099716617 1.851388029504307 0.6527679055775266
H 4.438591513302028 0.7353380475484823 0.05421350386670608
H 4.336985919040808 1.6088501744693706 2.84652032780433
H 4.462407989112058 2.7488973439852167 1.51357136741121