18

O 2.0600085489011666 1.5487190823851342 0.5364913497602316
C 1.1179366542583118 1.8504519245608935 -0.477414015058172
C 1.7649071022133949 1.561323001617503 -1.8094505069377709
N 2.926158696216279 2.411714837063183 -1.9972169631690944
C 3.6984281258234266 2.123417675335956 -3.195537363160675
C 3.0530329012640474 2.7857867626433355 -4.396808879734117
O 2.8247928983511796 4.147319834539607 -4.135256201764487
H 1.7287149006589746 1.8739336264697948 1.380523695251594
H 0.8345599894738281 2.910222979233772 -0.4351880623166861
H 0.2178156815989154 1.2407783241965402 -0.3724999993280572
H 1.036367915836453 1.751168975200835 -2.595805677624736
H 2.0272553710788204 0.4908661459545895 -1.8461128204119166
H 3.512224776645074 2.3458116571427006 -1.1732626522225746
H 3.822113679118686 1.0395522607808434 -3.3770671291455803
H 4.692475814850577 2.552335698035303 -3.0624001331325976
H 2.1083689053598023 2.279015432235543 -4.64946907237608
H 3.7036987310547187 2.7118348418275637 -5.267689776224399
H 2.61126287188662 4.185055228752447 -3.188200455753379