16

O 1.8292909067976308 0.2906271102682602 -0.9937990167163384
C 1.5093064027825358 -0.05887148046073296 0.3338376475386758
C 2.502662080752698 0.625512846878613 1.2344380904173495
N 3.842408235606286 0.1519150962276727 0.9626880122316991
C 4.860729478466727 0.8289962707652553 1.7149901196675459
C 4.949325539772033 0.29892385205737965 3.1211645569409407
O 5.3394778787776405 0.9252856289519387 4.069858264250184
H 1.3124441285880943 -0.24750816048520918 -1.5928025100548693
H 1.5778841069208713 -1.1445488736709528 0.4760310577302766
H 0.49014445338683793 0.2620362771992836 0.5964969147483069
H 2.2389612135389725 0.3929410658206332 2.2761396415541384
H 2.401919458845879 1.7173777654646265 1.1140313856753912
H 4.012055609490705 0.23333513760773608 -0.038621677915347284
H 4.757574019785365 1.9270892680593887 1.7673684870183313
H 5.837683483911307 0.6244174375738263 1.256658802522877
H 4.638652686782853 -0.7613354323876776 3.2225542182040647