11

O 2.8446597815538515 0.5230149719223814 0.831651291282203
C 2.6445732931283104 -0.09104513685829246 -0.16847306715029547
C 1.2541680438300893 -0.28482887476841756 -0.6381918121873222
N 0.1742748951801724 -0.4567561687448248 -1.0163272160978067
N 3.6679645661657316 -0.6304397553081588 -0.9638957615499617
C 3.366338511671882 -1.9051596117232477 -1.6536452813634763
C 3.4411038440570514 -0.6546106300265652 -2.4198438757791387
H 2.3818135376288705 -2.3438611268216736 -1.5091937666292394
H 4.193745626451099 -2.592414986096608 -1.6381133912600494
H 2.5105768441037024 -0.2501978788453167 -2.794891732054947
H 4.33009725060017 -0.4072763813452739 -2.9878953370189127