13

O 4.301239368762761 2.779181132586906 -1.293589597501258
C 4.96924338688781 2.219259442771414 -0.4616295545152079
C 4.520753452043945 2.0257280298109914 0.9318601479040693
N 5.310197690173608 1.4315904166751938 1.7203649876728744
N 4.799866829112717 1.2908579459704297 3.025873636405354
C 5.305982436348081 0.05041918635516056 3.625309811498368
C 5.90440372915006 1.3354449531698254 3.9911313755585494
H 5.9727603233906486 1.8103230739959113 -0.6805590320478452
H 3.542630515998009 2.40409466732377 1.235312144036666
H 5.870809501504151 -0.5959530511066977 2.967827689388591
H 4.59586836132435 -0.433227517728955 4.280456574902683
H 6.882825529518452 1.5716095442385287 3.591887533362359
H 5.639908589524331 1.8276103677427344 4.927877936242359