15

O 3.476071957346774 1.060469907711359 -1.064601215113985
C 2.795335865170393 0.047096575154109095 -0.37714501986262067
C 2.554955130587223 0.37541655875584845 1.0575834791569854
N 2.953489333045316 1.48726799620893 1.5022322059600282
N 2.6623363275301397 1.6886695844503405 2.8700119524821326
C 3.7049333879715283 2.4909999928822812 3.502078225862931
C 2.4208422576388764 3.1085276785115257 3.1440467336348092
H 3.6303299958459756 1.7563147485695734 -0.4177945076884632
H 3.3694624541592164 -0.8981699746863797 -0.4144820575207954
H 1.827943007423128 -0.16473994178081217 -0.8518809155040561
H 2.0334049466939277 -0.3450635176871588 1.6913170348563353
H 4.567819842294056 2.728866330447108 2.8838044433924015
H 3.9228130061924724 2.220956864823776 4.534126261750883
H 2.4074099033260516 3.7575630260231665 2.277861953428623
H 1.6696068605578167 3.2973613920450138 3.894094474981293