12

O 1.8797566038015847 0.1691432391527599 -1.1856629496356326
C 2.544639530001631 -0.1896739685906601 -0.00015854505467183103
C 2.986813459420612 1.0023531547691906 0.8148787324325195
N 2.1783115541798908 1.8836832858659576 1.2833829319107641
O 0.8745555548556274 1.5923217489324577 0.9537996285923739
C 4.366452299195583 1.1737006596585804 1.1158989113417863
C 5.541753145560149 1.2429594197596459 1.3270960242134353
H 1.0919131131494257 0.6682848993460891 -0.9177850838270842
H 3.4312238321925466 -0.7587750310379671 -0.29776698763389814
H 1.9229601185464225 -0.8323002261012844 0.6429261189029148
H 0.3792470252648546 2.31395039324891 1.350754802485694
H 6.588931076790233 1.320378509375832 1.5264122182755695