14

O 0.7549501348773198 -0.3239140093205315 -0.4714529323463785
C 1.9261123676092513 -0.14085455229701163 -1.1883174544302544
C 2.977012947914069 0.54721441962201 -0.3519757794424298
O 2.7462163470726813 0.8112087519646536 0.8118212108223448
C 4.2709754759062255 0.875092127699503 -0.9893978706279654
C 4.779085501954616 2.2592235703028614 -0.7728965852821471
N 5.407538076634058 1.1399621643025108 -0.12314896340686124
H 0.9337503334651918 0.00346939703492004 0.4208269186484172
H 2.3524173222637095 -1.0994798541029283 -1.5283998685371554
H 1.7532295638272823 0.4699372027882346 -2.0885537203712237
H 4.494859098996304 0.37564593697644344 -1.9211998805632284
H 4.148853282039862 2.915235433990866 -0.18108091274857735
H 5.347871885523655 2.726910794679934 -1.5681826933761338
H 5.082836168337843 1.0825084737662518 0.8379631924985335