12

O 3.0655829260691414 1.5811585063109923 1.0652410253106763
C 3.526231843505095 1.4095392231748063 2.1558034993545605
C 4.731344556982602 0.5197426740432604 2.462735000684607
O 4.988744459260762 0.26698982838053287 3.6154268954922446
N 5.470837189608727 0.14845656824033476 1.388230666990098
C 5.054269081612368 -0.6226927236043996 0.24270389135809936
C 6.089864460565683 -1.1315187496489783 1.191474930985145
H 3.087509575148928 1.8494000912441344 3.0726188358760873
H 5.3539922920693135 -0.2291784687654638 -0.7186638626343931
H 4.070970336111385 -1.0678990447523744 0.2848017555753816
H 7.1359054921927125 -1.1057355014689683 0.9038995328314359
H 5.813699954826297 -1.9182928150155132 1.88692098727282