14

O 2.2603063301639983 1.2695263230891345 -0.2598146559959908
C 1.7740505628055052 -0.03461324035787483 -0.03574313777828857
C 2.809012493798352 -1.0145369699027704 0.48887363578929155
O 2.4913658041768114 -2.108021169632869 0.8847677798528915
N 4.092319872462685 -0.5470217481643039 0.4485318766247859
C 5.181761916712515 -1.2918432021051138 0.8526104088673258
C 6.439573577335641 -0.8779745656431329 0.8065965435397642
H 2.1415282645492644 1.7904344183556387 0.530482654544338
H 1.424306003043997 -0.427094372705366 -0.9944530302688154
H 0.9206354193223333 -0.04660681798631621 0.6508241461368632
H 4.216265099227734 0.3791669963571725 0.07170267567595343
H 4.911172378594487 -2.2705788148418806 1.2246793882895852
H 6.712199645508736 0.10835919531592032 0.42423163229507393
H 7.23917838759649 -1.5247817578872702 1.139091232318436