11

O 1.7028709841722685 -0.9906119378418159 0.07516566108082429
C 2.262125635458955 0.021772793125754395 -0.2248991295319756
N 3.483860828166834 0.08049918908977122 -0.8952245546766473
C 3.8190585588434858 -0.7860732105317338 -1.9739777451301852
C 3.6312415203428725 0.6880742079661593 -2.1937344638968055
C 4.7684757619189515 1.5549535079866295 -2.3961687579180406
N 5.657074397085047 2.248443667023471 -2.5827868773208174
H 1.9030222973900288 1.0343074195256738 0.04831298772803194
H 3.0340049046396875 -1.4400421780180346 -2.35155603006103
H 4.829600585314205 -1.187437778318612 -1.9702981087165743
H 2.733695687363991 0.9928216027188873 -2.7105798932334584