14

O 1.9351204575132266 0.9376623931429898 -0.641273079232575
C 2.3723565258519637 0.07021631168262872 0.0793939045572686
N 2.8166647900096744 0.2495731664269737 1.3403480683307094
C 3.3425510780497683 -0.8035588000842281 2.213044947551399
C 3.703868507381145 -0.06531967051265557 3.520481452959055
C 3.3339158066414982 1.363656966082209 3.2301153057617675
C 2.8433372956501377 1.477540137299873 2.000741004618411
H 2.4439519164136 -0.9851566330301654 -0.2397072961057849
H 4.217066628093748 -1.2761200550793539 1.7607832814740378
H 2.5797826577304126 -1.5752101643943985 2.3786294751170463
H 4.763485773660513 -0.16870435405375145 3.7587810497697838
H 3.151323196100604 -0.46830215381762014 4.3738461332107805
H 3.4566757112812074 2.1761309265130975 3.9397177660503973
H 2.4857798866432606 2.344831670559571 1.4730900022725186