11

O 2.473678786591976 -1.1087290418765827 0.17414546629026367
C 2.1955075794404832 0.04598723737031036 0.0883417667258324
N 2.816985358796549 1.0818821608028928 0.7940197056504488
C 2.4927427356051894 2.4036109255995717 0.6864179374881375
C 3.3192601278834406 3.0753415273092677 1.5350787747608114
C 4.122738829236497 2.056992475563237 2.121348567182665
N 3.8187759295449384 0.8704858301692909 1.6746976089214232
H 1.4123940320490853 0.44732352475028736 -0.567358922594955
H 1.717501658983373 2.7419237698142713 0.03215886777780928
H 3.354778629259832 4.141148787855683 1.7132301134208652
H 4.912661209214492 2.1652560682165958 2.8449755018463905