13

O 2.5976812857490583 1.1510470553690328 0.0864885836002093
C 2.2265643442882785 0.025361559878195685 -0.12715199842272254
N 2.953604792695269 -0.9786004654105391 -0.7033110359408449
C 2.461363946452198 -2.335406108879417 -0.9411860524400919
C 3.67305955040502 -3.0090179808471214 -1.6011772529585377
C 4.661014763472507 -1.8842160871129048 -1.6122882316301446
N 4.239668541971169 -0.7901469141960397 -1.1200863414025448
H 1.2183621210313615 -0.3345090201464955 0.13295706091205808
H 1.590763722070556 -2.3152225756597264 -1.6063240165802217
H 2.1692602789176503 -2.809283137818039 -0.00782808810128705
H 3.468342400471484 -3.3734155850218155 -2.6063470427979087
H 4.038307459729534 -3.8609781074129295 -1.0225738786652006
H 5.674632896143871 -1.9484086319723872 -2.0010967301975695