12

O 2.3246809339967416 1.033843288088936 -0.5642783372458464
C 2.2571295075945126 0.024060173288275595 0.11374633802982378
N 2.769771428839287 -0.0680071953382914 1.360618432966995
O 2.647615088875991 -1.2708704470891963 2.06042360819286
C 3.28529136144128 -1.0653156748721881 3.3353814194649822
C 3.7823776035146506 0.34435225703271255 3.2982323280632295
C 3.452918326360772 0.8583750372340363 2.1175433074601493
H 1.7728470640345617 -0.9163163627878872 -0.20224462619474112
H 4.08839942016606 -1.8110172854962907 3.4417370830334773
H 2.5508377618923106 -1.2504790860897588 4.124303051939253
H 4.309913166159949 0.8287785945228541 4.092577184452524
H 3.6196181487656687 1.836750281474395 1.6956750624166799