16

O 0.8610874356331127 0.052957035511506254 1.4845265964520513
C 2.048288156881515 -0.09924891861952072 1.6015631341081855
N 2.9440141443469336 -0.0429212829216442 0.5936905272714982
C 4.353975769889637 -0.23377120932175982 0.7224148749558227
C 5.082706063853936 -1.2746424221686241 -0.14847127081746284
C 6.290223418061717 -0.3069807909996132 -0.19304335240263906
C 5.3298348782942675 0.8324486874729872 0.19415098867470143
H 2.5270489015217175 -0.31121889364801575 2.575794028113578
H 2.568471711410948 0.14853990500646808 -0.3207405527720228
H 4.556193340883958 -0.42482773833074444 1.7829076344612076
H 4.599422479598381 -1.3388296516665539 -1.1292429344402375
H 5.218113858441773 -2.2737923572386207 0.24587563942958574
H 6.82938837898513 -0.22438749421441614 -1.1313393565718826
H 6.994612090225199 -0.5274552102619116 0.6136308538097277
H 4.916940669330354 1.3171150924217028 -0.7012295572288689
H 5.671663810912061 1.6145388538751075 0.8806940124412781