15

O 0.7110731768530065 -0.9483216817867843 1.4299317985452678
C 1.863643695291216 -0.9465883958952501 1.0528569328619273
N 2.9326755925162016 -0.6901991023546304 1.8436584686184703
C 4.284944418796594 -0.685177809079447 1.4037699293026638
C 5.184918794211413 0.5279616352438814 1.6988744860766727
N 6.297025770423865 -0.41754621254004637 1.9191748650926932
C 5.337882855836604 -1.5096342118133639 2.1637755083832904
H 2.1505413319149023 -1.1732428893329911 0.008250816733094583
H 2.729700196622115 -0.48009697251721173 2.802946338823109
H 4.3004018608610854 -0.9300016940905954 0.33648559371727055
H 4.852952866491704 1.048062076935722 2.600302573153916
H 5.3409601155619955 1.2582926622491815 0.899275094670087
H 6.922029302654917 -0.19403702495565164 2.6820536557657433
H 5.049007439349168 -1.6208636418307665 3.227176974777537
H 5.62621455687775 -2.4811347286503227 1.766532873346433