16

O 3.438392312047375 1.4815898745296137 0.7398366118963315
C 3.0896183055769977 1.1722317925315409 1.8587886421268962
N 3.127456109576797 -0.0756266098456567 2.3742192510172355
C 3.62017311836467 -1.2317243007555536 1.6506284633271875
C 4.590208982508224 -2.0291054889982094 2.4853157966144774
C 4.06011156306241 -3.0146782400163556 3.484076429629343
C 4.734402244768318 -3.489492989891485 2.2269201573486015
H 2.700403285583689 1.9123002080977078 2.582626179541022
H 2.8173215163412237 -0.19926928979179084 3.3217989153198664
H 4.103223763293294 -0.8496447289664895 0.7499323374698534
H 2.796677272979272 -1.8725936252818407 1.337033782278633
H 5.48237744621262 -1.4884630830257788 2.7677026621104748
H 2.9894980953250156 -3.1490912611469297 3.5468149192462297
H 4.5882487844674245 -3.1374829270259506 4.422054389666699
H 4.121271483622022 -3.9355460802035003 1.4565836916520774
H 5.724082077277098 -3.925289805399132 2.310706837975348