14

O 3.1002216581418276 1.3168404297761187 0.294146068534133
C 2.4484110466937303 0.46577919752981206 0.8633446830149912
N 2.8865532335073993 -0.7743916867467391 1.1496651431324283
C 4.2139503133356895 -1.2417265997256772 0.8364059412804259
C 4.927794758474554 -1.7730013671846725 2.0518067099801165
C 4.6985484934777855 -1.2749285218137394 3.3901731658371377
O 4.136004937137202 -2.5095605647571895 2.9656958042644597
H 1.4087160979481577 0.6364428665350186 1.1985375012937256
H 2.280257004054661 -1.4071624997312953 1.6500694410236443
H 4.7589144410378905 -0.39954545962349625 0.4103288573709808
H 4.1699414580977345 -2.027596594493873 0.0782374300288408
H 5.899168810113597 -2.227020242576866 1.8361606629216594
H 3.977033038457352 -0.47051178572013297 3.5506686915955536
H 5.484252134140854 -1.3563318035952243 4.141929565397432