14

O 2.5191249502530386 1.7657857502443706 2.224310264663083
C 2.0934797454127154 0.636826980408579 2.2558899714100935
N 2.7785649240892254 -0.46666921300474984 1.8835688229427874
C 4.162644046349137 -0.42566641819655643 1.4752185205075758
C 5.103518311287622 -0.964702631944349 2.551932924344858
C 4.82469179253255 -2.3510447675254884 2.894855667619476
C 4.552523973609382 -3.4896468524775206 3.1605150961975395
H 1.0645868989177998 0.3984635151797103 2.577796901843603
H 2.349009806658473 -1.3630526183552718 2.0296791993028953
H 4.402690670711147 0.621712307117716 1.2750223688293438
H 4.288367074315735 -0.9998485640438213 0.5594922068631597
H 5.0237062852387755 -0.3357132735209932 3.4493522195279325
H 6.139334100779155 -0.8857943682078768 2.194894520625545
H 4.331240489319713 -4.5019007196544445 3.398512553334192