11

O 0.9584264777515784 -0.2776753135515661 0.22642536939004843
C 2.1481797788988546 -0.26339904258002744 0.25134603914672643
N 2.8826437817701147 0.31250964042758067 1.256142887001791
C 4.251440865247719 0.3319479969335835 1.3021644854396004
C 4.976878651945515 0.894091093896784 2.2834122765143756
C 6.393718775417104 0.8729138021688821 2.2505272701958448
N 7.545307739397283 0.8694172029119775 2.2378553989641032
H 2.790575610321896 -0.7087843911255723 -0.5373648686609547
H 2.3509888824721474 0.7337440768512085 2.0068936719214348
H 4.733066383011949 -0.1499835436683901 0.4582308867014322
H 4.510778624988623 1.3761200610143607 3.1340284836082692