10

O 0.9516127211546545 -0.09922551727502169 0.30628792876000344
C 2.1332694778160373 -0.04668323574801909 0.14377572737730795
N 3.0387072983254098 -0.36332553117489463 1.148564287560187
C 4.409282886865846 -0.3166125704144414 0.9970775298839853
O 4.963566802096081 0.01749963994701758 -0.02182258306647981
C 5.129039566900578 -0.7018480541556757 2.196819601951462
C 5.74170212006107 -1.0165007444735392 3.174593787405099
H 2.633187391110191 0.25903949407958526 -0.7915017975437159
H 2.6477752449779763 -0.6509938123490183 2.035537640139453
H 6.29626607762353 -1.2962262824681705 4.044828039633335