15

O 1.9438298758112162 0.7970044780827492 2.5091472876025263
C 2.5401951828718183 0.6495245951461153 1.4712548380500565
N 3.8922577663239237 0.6713440764626668 1.3582576494296767
N 4.517289414150521 0.5097218779205699 0.15414554406315556
C 5.474913773316551 1.5227622031927621 -0.2876703996209229
C 6.303157539850275 0.3943975312053607 -0.9205343893831407
C 5.531143709620771 -0.5524153880558965 0.01925404805522877
H 2.062660199154124 0.49758468284192897 0.4911973756170488
H 4.443942254023729 0.8133755157875006 2.2030657486556886
H 6.0102083911119015 1.9979833835293106 0.5484657181939588
H 5.058956449255944 2.301486851709152 -0.9385450174098737
H 7.385214072104634 0.4354309541689163 -0.8098647932595855
H 6.050355825667194 0.23309868468894865 -1.9667836569935968
H 6.074861154623832 -0.7201458807736655 0.955873619008201
H 5.1631304427735865 -1.4966514328873888 -0.3691302641648333