12

O 0.8835387138405871 1.4587833889100272 -0.3812760115955417
C 2.0708617275705326 1.5733910723618807 -0.21633790220362586
N 2.6986044879159126 1.2614894970621484 0.9594541802426958
O 4.065483304176364 1.0757671130996775 0.9067505137777921
C 4.721845093431149 2.073650244658131 1.6921366390486785
C 6.1516047169148305 1.8438921869665372 1.6215676304190016
C 7.334114725219615 1.6812523303528215 1.5915918168684307
H 2.7710571299325597 1.9643505144253244 -0.9639092273607535
H 2.230999686216756 0.6229546578540301 1.5964610478563905
H 4.373210636173076 2.0197021023415993 2.729444246319272
H 4.466462119431861 3.0659551474828555 1.3022944136939982
H 8.390441740811207 1.524159469467868 1.5509397463244865