14

O 1.541781969632087 0.6251603496306929 -0.1756236353997345
C 2.811704025377436 0.4543739030113243 0.22170237175255028
O 3.251264350989076 0.9959902222286671 1.1857535656617273
C 3.5912595190337058 -0.47392227792551966 -0.678338924331856
C 4.760919280565563 -1.2897280968551472 -0.12012140318693017
C 4.155570880665588 -2.4637068920006775 -0.9056273054585051
N 2.87238063637872 -1.7160331002718061 -1.1041169907177668
H 1.3613144640070758 0.10569586194937808 -0.9669767068727756
H 3.874078471604336 0.09610158986028682 -1.5670364819532476
H 4.68414069711018 -1.4145816987270918 0.9668677131050901
H 5.7740821182862545 -0.9632250966402792 -0.3727641932114648
H 4.052285576013323 -3.4214821442564576 -0.38811410162788595
H 4.636808203359055 -2.6297893300517807 -1.874981221360776
H 2.239806751491796 -1.9866739262701492 -0.35506870426035253