14

O 2.1792464529106006 1.9294430233917956 -0.18259828265413808
C 2.770829624794974 2.9637355786907533 -0.06593509944015673
O 3.964711369215006 3.1222445181512852 0.5013968004220377
C 4.5731341768675895 1.9320527193722608 1.011272610932953
C 5.914550409351575 2.275478278112246 1.5857256805760929
C 6.744588943331181 3.3679871788985296 1.0519165035226599
N 6.112382520736251 3.4904330126407213 2.368521422323764
H 2.393291858483852 3.9419610779087852 -0.4114978266546156
H 4.6759726163793935 1.2016207410078183 0.19688229981041525
H 3.9213380014088215 1.4962035188538085 1.7696602504883239
H 6.4188294193425985 1.402361495467401 1.9985311531073946
H 6.330944158605879 3.9522892620175067 0.23492842255476948
H 7.824735217134284 3.2878048623711797 1.0621825540212553
H 5.284745134577695 4.078383203456446 2.2894305223733653