10

O 2.2187677044269134 0.2438634540893385 -0.43008211980061695
C 2.0175297408545836 -0.5878833142439768 0.3856798188744151
O 2.9313097580339247 -1.2715244270628867 1.12427164449756
N 4.245835348622295 -0.91738422326513 0.8410424753469105
C 5.021136787988987 -1.6046191799790261 1.5685986949625255
C 6.426894005172154 -1.4275928165696472 1.476169233738094
C 7.625520406201434 -1.3335800389609365 1.4382630951247009
H 1.030872448638315 -0.9585311300762489 0.7016997565480564
H 4.638645283783651 -2.336121020017422 2.2878061190881107
H 8.684280591890804 -1.2277572445633171 1.391812825779145