13

O 1.301162180700777 -0.23908913651435024 0.26008628508445203
N 2.68420294495082 -0.2412096810333068 0.2989062940373414
C 3.376553608340118 -1.342758684759998 -0.31835618085665635
C 4.694108423511698 -0.7110745138430934 -0.6435376975462803
C 4.6398522258649955 0.6066006141609386 -0.45158897962406447
C 3.276914368020496 0.9622333221003859 -0.007748957354950874
N 2.6009211141001924 2.038753516029679 0.055893806334752306
H 1.1119449949121858 0.7185599847377206 0.16202127117851217
H 2.853838903352815 -1.6760491262041202 -1.2150306118396286
H 3.4610628477138157 -2.1909596603641037 0.358837868666755
H 5.553907589797882 -1.2832056116316308 -0.9681851997245273
H 5.422364452478687 1.331937033237993 -0.6073331845024977
H 3.1368223267053335 2.8563075871813255 -0.1945548411064881