15

O 0.9816911282095698 0.047327047237194726 -0.287041196233761
N 2.3066149480846487 0.18009675140652817 0.1578732122382025
C 2.956235118931513 1.3478442003185798 -0.38449680366948386
C 4.390017251190746 1.3419289955887914 0.11468018080848982
C 5.070733085402364 0.03466674274339728 -0.27803187235564153
N 4.255137278955524 -1.1528734409619026 -0.10466526253176443
C 3.0048136758115302 -1.013160386464379 0.04837594834736778
H 0.4500767917793543 0.25762803532793405 0.48778146083597407
H 2.4228116686256116 2.231045333521144 -0.04656638498347238
H 2.919023136972967 1.3341082279120318 -1.4836444537581936
H 4.384091103181506 1.4396386732518627 1.201701165886976
H 4.934216018180599 2.1954201868833114 -0.2959788107353414
H 5.992192212369681 -0.10096367296855502 0.3070182333322003
H 5.392601560185367 0.06587072562269158 -1.3281123251555038
H 2.372891122705743 -1.8864367990274662 0.14978026413465775