14

O 0.90975861243737 -0.01697940750472197 -0.20310543385748056
N 2.297541805853262 -0.03470769716507508 -0.09109491616694211
C 2.8170419249952094 1.0762888053835522 -0.4470063770213104
C 4.317537274895817 1.3034619868573887 -0.40435957575751535
C 4.494751331170534 2.745214154033239 -0.9038803126639386
C 3.1049464203935226 3.2213399397395626 -1.189040183965033
C 2.181915982881215 2.289910162843295 -0.935363402947393
H 0.6714843134151044 -0.8889287469365555 0.08679337780103284
H 4.830539723974092 0.5723224893531378 -1.036328025722051
H 4.694402971656946 1.1644283558077357 0.6112077620637982
H 5.122592429352607 2.7918426164905465 -1.8053523531951685
H 4.983487147417492 3.382010997272515 -0.17094838926189088
H 2.8977061439623846 4.20979112803677 -1.562466091017695
H 1.111616156521383 2.3964042629970757 -1.0573858134238026