15

O 0.965149258383258 0.4521214891488499 0.1204106405014491
N 2.3422596643235063 0.32231990232929775 0.1955758499994575
C 2.887588889584432 0.5289968456820616 -0.9310339005212842
C 2.2413211263964583 0.916666247502603 -2.226952282273421
C 3.4338077657843264 0.9500465544077089 -3.191591603724343
N 4.624746220932089 1.1866063401369629 -2.3855000983238934
C 4.383898090478247 0.4732055885005771 -1.1390461121467232
H 0.6886769158555196 0.2748007870550118 1.029271452545919
H 1.7720543931441708 1.8983127091453347 -2.1281895571991063
H 1.4434343578702922 0.21696570924479544 -2.5103297379082803
H 3.3434002077633056 1.6984693264881263 -3.9735111269031314
H 3.544272200132302 -0.027616568920087313 -3.687131686466944
H 4.692885934133867 2.1789285888758356 -2.1812616474585376
H 4.938390358491966 0.8878025250782734 -0.3037242776701923
H 4.691918212895511 -0.5738973319084865 -1.2522907785965343