11

O 2.1551329948793745 -1.3356263610636119 0.07375640220593786
N 2.0864755812517397 -0.15582027871874546 -0.17182794089312606
C 2.850717536987129 0.27629788905157543 -1.2551469285834604
C 2.8630638638369112 1.6000551058734127 -1.642143434893702
N 3.685940433271159 1.6935118872460142 -2.710780119696746
C 4.2087876550023875 0.4571510376249114 -3.026500420432525
C 3.702469480189474 -0.4507900447878076 -2.141483495014296
H 2.347963492933465 2.4418790211315895 -1.2259304883134217
H 3.8863301913578354 2.5476975299177833 -3.2002129122119034
H 4.886730365636016 0.33603808269999746 -3.8527070108608936
H 3.9139571952449375 -1.5114780415494766 -2.1018337354886625