14

O 1.0623845977980535 -0.14045915432367787 0.3198665802741798
N 2.4486105367332898 -0.1153783876973172 0.2377076846698047
C 2.9354168265749507 0.841970327492437 0.8944798193896666
C 2.240464612830628 1.8854123763294943 1.7210764105401808
C 3.3987993779945898 2.814690247595384 2.0730354418158368
O 4.559192697155999 2.008244436977104 2.0520302814544378
C 4.418467786230606 1.109805024909047 0.9715064874931346
H 0.8346358660654734 -0.9104811144872571 -0.19966350293437513
H 1.8107915243499209 1.4172582510398455 2.6100465046904384
H 1.4271797968621789 2.360855115128508 1.1791447610634291
H 3.321049722606343 3.2675674829326073 3.0628330110787525
H 3.480669935320234 3.6174970375334765 1.3261935717872688
H 5.003587499351833 0.2180075980311433 1.16584348624578
H 4.768905332762661 1.5707186111885367 0.03997092584850018