14

O 0.8698597324500325 -0.6897513205381693 1.395984718542095
N 2.2097122672836065 -0.9521174362573547 1.6016191343156003
C 2.94320585225742 -0.3058312657279089 0.7942954030039258
C 4.40272267246146 -0.47116932241128673 0.7930895737873093
C 5.09528726389051 -1.376559085347619 1.7769083701489046
C 5.006629368198284 -1.77993015182841 0.3465356456938007
O 6.132573932319586 -1.6859310641483465 -0.4709142911716787
H 0.44468354987025693 -1.2143913610132984 2.0768224904331944
H 2.495767212846593 0.3677980768857814 0.059044436283697474
H 4.969401236907639 0.3939959876667318 0.4646243223308493
H 4.468541879682383 -1.889817738701042 2.4967421399231107
H 6.056212373261702 -1.0501830805615007 2.137807640215518
H 4.2998080646831704 -2.5626858211205903 0.08862815422650003
H 6.7320447554807075 -2.394999109466177 -0.22423391329893486