16

O 0.9744212907266984 -0.20191545674904748 -0.790052828667242
N 2.3484657859767877 -0.35229056578123585 -0.672999709596668
C 2.973526933646303 0.6883862725684542 -1.0478266072748568
C 4.445652454279688 0.7398714673825113 -1.0093455349177738
C 5.215265279765115 1.1603831810251737 -2.2853631562869015
C 6.198062119723599 1.9292482073793622 -1.3890454206786462
C 5.133976355846944 1.9235636596522159 -0.27830007838191656
H 0.6386377206316461 -1.0510713115189096 -0.4763770805781274
H 2.415215905954406 1.5630825507761188 -1.3969288523985082
H 4.822533071838633 -0.21623507113754495 -0.6235892918960648
H 4.609599932486369 1.8408372829386166 -2.8838079625200406
H 5.596985865202419 0.3630564165521909 -2.9244610943359213
H 6.568890198301698 2.8874130292850015 -1.7371991368384299
H 7.056275017870585 1.304111275400734 -1.1189379988259442
H 4.51248921211096 2.8172918891927297 -0.331173353408337
H 5.444090415123995 1.7608189264031626 0.7516950778020672