15

O 0.8862635075547742 0.2963534148246635 0.14808701449094633
N 2.255002811316985 0.31159880241115195 0.3983952845347865
C 2.898379799203985 0.8002208753646821 -0.5797284620263197
C 4.371678744171153 0.8957417763306554 -0.5120064208321777
C 5.208994515177938 0.3522694411624967 -1.6974106763014396
N 6.089828833763989 1.522917426176923 -1.5718080492951734
C 5.0451248547934755 2.2479232156616806 -0.84621535500328
H 0.5285946269702755 -0.09004039536560418 0.9543451794431199
H 2.3747827179580323 1.1500369357105955 -1.471001799595285
H 4.73159124524314 0.505696264749747 0.44107676554920583
H 4.61410454531646 0.32719934419915836 -2.6201406474551137
H 5.689838880729379 -0.6137994279069822 -1.5597416462127833
H 6.397925359887554 1.9372995200361676 -2.4422875944870963
H 4.392658153576931 2.8699724383606546 -1.4828205961301058
H 5.395245165910904 2.851826053496976 -0.0015165569465806707