14

O 0.8492443925187978 0.37006076398569154 0.6393381451186793
N 2.1455203291791918 0.18061249731783402 1.084446904019085
C 2.9670436407452487 0.9185595812568526 0.465932070930946
C 4.421257125513492 0.8524568313590305 0.8064545114058955
C 4.946479656839762 2.1931772808044143 1.2621345263339228
C 6.294945206072666 2.630883955668374 0.9451140453852285
O 5.175277380062986 3.1581686102721496 0.25271121374668987
H 0.33978722229878083 -0.23445928798696866 1.1913792701423915
H 2.6308078603676988 1.599652198633261 -0.32239127814599605
H 4.994824236537167 0.5397764844975931 -0.07018731057571753
H 4.55968017570403 0.1121178222416955 1.5968309658119033
H 4.470764840517723 2.5915084903438523 2.1565975649994096
H 6.942201397348863 1.978760974131678 0.3632274880559212
H 6.809404535306619 3.328051181166904 1.6060408302188711