12

O 0.9365128486275763 -0.0901337742816636 0.2506549061729243
N 2.3022034098588553 -0.1013568070365924 0.24203370227871154
C 2.7989834376175753 0.6472970702095273 -0.680464783924133
C 2.018921537788578 1.4259258906621803 -1.637046454154742
C 2.566589674754732 2.1839612349229647 -2.5921483799210305
C 4.233580565193136 0.6673287094023079 -0.7449380890907347
C 5.424684150492675 0.719879235837825 -0.8295178379187189
H 0.7244547484242218 -0.6791706451754749 0.9868161800773638
H 0.947704592186515 1.357447988155611 -1.5406323976581624
H 3.6487464481650753 2.262782983095701 -2.706067855923076
H 1.950109882420169 2.754131365500424 -3.278636372016887
H 6.485797140391755 0.7564531130844369 -0.8920815229853932