10

O 0.8795104798646008 0.05078389699392098 -0.04091336945273248
N 2.2257518973373385 0.1326070063945687 0.05191515099598364
C 2.8196259920146125 -0.6055018585515128 -0.8258167882373637
C 2.14666632305429 -1.4160983981834805 -1.783680160339657
C 1.5929263645265355 -2.108084378774226 -2.603868389577125
C 4.246711598893989 -0.6103112430024284 -0.8204035829339974
C 5.445278899801679 -0.6370688749099068 -0.8631285740601023
H 0.5736280087950721 0.643152834594059 0.6562437156862171
H 1.0995970552726708 -2.7149687429901963 -3.3251975625257515
H 6.514136551274328 -0.6537996923483205 -0.882470357910937