12

O 0.9847306453400462 -0.07161222999142824 0.3505029782524813
N 2.345832696080387 -0.24958678900842124 0.3046040678861758
C 2.9660425614280315 0.835368165311513 0.5814711844385865
C 4.403948494577314 0.8401420341044511 0.5888128920489071
C 5.118329973497438 1.938213517256046 0.8642142967442925
C 6.531674651777802 1.9851790895467385 0.8796542131515759
C 7.728611036952463 2.0552559454841726 0.8983031315043947
H 0.6426708061316484 -0.9382716703138436 0.12444454562790874
H 2.4201066194668845 1.7477139499852055 0.8212280376818999
H 4.897262193368793 -0.09750829284718383 0.34414212647832204
H 4.605513740723397 2.864939917758609 1.1077604350641372
H 8.789209360163088 2.116277764376119 0.9100543741427018