11

O 0.9522730961623371 0.5810515861404624 0.3685014639533079
N 2.2773661380473538 0.25141797119244447 0.23796873416322326
C 3.0110245389530577 1.2768550255671218 0.1430809082856155
C 4.472722932698574 1.1371072602380545 -0.006736172517213231
C 5.121237456185319 -0.029089858504659512 -0.055969238562133004
C 5.196944806022733 2.365451693876325 -0.1063570208534762
N 5.771422706713718 3.3587981832014275 -0.18111946805627774
H 0.5137252627162854 -0.2771064561922871 0.430031380533219
H 2.5857846219615452 2.283143437027472 0.16077324581544775
H 4.57827173883054 -0.9671155643517675 0.022831816962758444
H 6.197647764260826 -0.05975143772814727 -0.1665049820759902