13

O 0.8713434779799757 1.2606284829280494 -0.13625341883743802
N 2.2495243526082116 1.2766635612725161 -0.17308310673368724
C 2.757681774173247 0.8205348217467173 0.8898186136535733
C 4.2493298515860225 0.761470935387669 1.0112716960574475
C 4.77937093520234 1.6355174204609064 2.151091928544842
C 4.305238835966819 1.207412421881257 3.4589427818884557
N 3.9189783526761937 0.8545386163965241 4.478052397318069
H 0.6186697857802587 1.621248023225511 -0.9866619520254576
H 2.1374040678638 0.4720815751147465 1.7128606863952365
H 4.68863346842314 1.1025586886587868 0.06823266794666119
H 4.562897577575942 -0.26860871382406354 1.176347349392092
H 4.492717051919664 2.6749885939149367 2.0021421211154853
H 5.877448131825593 1.593697149118638 2.169192725486531