10

O 0.87480429289613 -0.050734645744996226 -0.009237169560632185
N 2.221740325666436 0.08215314059506505 -0.14595293716461177
C 2.841203446635583 -0.8767324151585105 0.41973575548029657
C 4.25401677355917 -0.8985444705597924 0.3824117115502909
C 5.4550784067272335 -0.9938945397618888 0.39525365071801377
C 6.895390202092166 -1.0282716602787418 0.36821834677997856
O 7.5510499370893465 -1.895628661202978 0.8806669173866155
H 0.519408081530771 0.7202810142683976 -0.4722153483700235
H 2.3111606578574015 -1.6693555957526782 0.935389850353918
H 7.3699498297006105 -0.1900924340816944 -0.16792043175843044