14

O 0.7582857043072923 -1.3096659303397618 -0.18943416583785236
N 2.1405953206265096 -1.3836747008780002 -0.2454147709227368
C 2.6847674161908452 -0.86899911814129 0.770111370566058
C 4.169697790013229 -0.8687384898959718 0.8856147209187287
C 4.683544331246109 -1.7126889951977056 2.047575565112293
C 4.388959601570511 -1.1671273216964333 3.407653083395055
O 3.8262149549450677 -0.1245695974080667 3.6215915332221815
H 0.48108052800403756 -1.7122551197798601 -1.0164208541367095
H 2.079237589696574 -0.4243369119340709 1.57377445676214
H 4.517951785361832 0.15991122141845043 1.022546406041888
H 4.585176369498238 -1.2381533479786857 -0.054687517206354015
H 5.774163399383617 -1.8255293435164601 1.9863698718404872
H 4.290358669441899 -2.733217168189224 2.001534093837419
H 4.735231902227815 -1.792471466400409 4.254035029111033