14

O -0.5739187566008157 -0.5861316455105856 1.9524816679774466
N 0.333648995018039 -1.277652839473293 1.166996548122611
C 1.719328708533696 -1.0520923674647635 1.468979698417371
C 2.1306847531101787 -1.7350473298019278 2.7290546816243055
C 2.536419875643194 -1.0877945598881502 3.8233231666398977
C -0.13168828115043574 -1.6944276362810793 -0.03875653193693547
O 0.5743024314283576 -2.1374681494548486 -0.9206512439835229
H -0.6879981800698363 -1.1225470192530034 2.7500958404322624
H 1.9064410857759657 0.024730097797508663 1.5295528823055555
H 2.267263433932331 -1.451411690150394 0.6060669370243621
H 2.0777228546649473 -2.819054028607322 2.7239942338376997
H 2.6005653652211502 -0.0108381114194364 3.847369924885696
H 2.82829367417393 -1.6230340508140022 4.720525117551706
H -1.2287852024242056 -1.5999105463174736 -0.10333983492825523