12

O 1.2798911305422793 -0.3965183375894792 -0.5946260199406548
N 2.4139734709309506 -0.04530489918582084 0.11477920089712142
C 3.348878738429571 0.8073434154295404 -0.5831167073106573
C 2.7918219752348077 2.1422944444347434 -0.8196675479946761
C 2.32064255602147 3.2232885180780917 -1.0242967547559725
C 2.7863582576956065 -0.8519754434233152 1.1395989696122852
O 3.845502689751673 -0.7910768260658375 1.699017635564989
H 0.6587146985678892 0.31675787448655 -0.44083264525977456
H 3.6314735910838185 0.35726066327950884 -1.5367556595185277
H 4.235273508647517 0.8560275553672003 0.05400798892969726
H 1.9161940663563528 4.1863723735249465 -1.1915344075932954
H 1.972536134717966 -1.5628172570790004 1.390568945607674