15

O 1.568656929135651 -0.9954061336743968 -2.1449589407904286
N 2.7245209112361573 -0.5971807169638685 -1.4958336519344695
C 2.8679964993749745 0.6493423034064255 -1.521460485512072
C 4.05688836393143 1.2662301653075305 -0.8440195905846024
N 4.799766511380959 2.0856358451517134 -1.78291717188001
C 6.18103847340811 2.319370406273466 -1.4451699261656459
C 5.8218501219242444 1.390655737060633 -2.542259688840394
H 1.587007077299345 -1.9567644106243127 -2.05878892161541
H 2.1528089478810126 1.3031292885544485 -2.028246443126324
H 4.655902195657214 0.46119983114834334 -0.39834398362231016
H 3.7081835416024567 1.9212406654505028 -0.03926538473423243
H 6.562668553524199 1.8727228387149966 -0.5273266399578148
H 6.565958266568313 3.3095654845665643 -1.6598460730608382
H 5.950791891784104 0.32629623627564414 -2.354601531336508
H 5.935191679581951 1.6891997288890355 -3.5739511968762843