10

O 1.0183015184284523 -0.06729603012996027 -0.0487649100519369
N 2.3555257663145164 0.14401913960575377 -0.020938777809645235
C 3.007028088487408 -0.8443524039091759 -0.4964253842821115
C 4.491783171233539 -0.766549744534574 -0.5384137725026485
O 5.1396167298486795 0.17183486076392512 -0.1448587682713429
C 5.12106136800011 -1.9538756960430916 -1.10502839743395
C 5.630040305361991 -2.935648465645833 -1.5679954787874313
H 0.6562793999269038 0.7374460988800923 0.340694784437351
H 2.5030958863233463 -1.7392518717888406 -0.8710845771556661
H 6.100372133331245 -3.794420893016606 -1.9847254541480734