12

O 0.8264460446915534 0.33227158877045937 0.44803575503975857
N 2.1984877833460814 0.3274742625360281 0.6366292098347366
C 2.8108301945525627 0.9396126586482187 -0.2957813765584017
C 4.30365777684902 0.9973791476250699 -0.2392590056421875
O 4.88703002067224 0.3026683156605952 -1.31570828939527
C 4.752589476003014 2.3941021380055325 -0.18520384395282752
C 5.0989774761482884 3.541916532064516 -0.1801703019136454
H 0.5016229700905952 -0.159845394059126 1.2022638616534844
H 2.2779644397475636 1.3970385472426545 -1.1260554009941441
H 4.624098735453615 0.47912217685503017 0.6784587614322514
H 4.907487546465267 0.8900331684125613 -2.083555840653651
H 5.421610325738543 4.559230273945814 -0.1630746495318297