15

O 0.9928035272781073 -0.8804611043419328 -0.5484470365348535
N 2.296058566210289 -1.1493618058753132 -1.0071060639646428
C 3.1231259125163304 -0.35251214420261384 -0.45158378740766725
N 4.441875805883147 -0.39155907578904736 -0.7144489816129413
C 5.5696457447913374 0.3830866571543568 -0.2482394090402721
C 6.474952447170998 -0.49089733488230103 -1.1474872992668543
C 5.2021505654471145 -1.2556568303471118 -1.5973840056375885
H 0.47496974082470544 -1.5368696935498927 -1.0259296974065764
H 2.7943757903591053 0.41413613784475073 0.2631651348175563
H 5.762094696565879 0.28657580224211177 0.8352515278112735
H 5.531669924778481 1.444413995930583 -0.49875239162566126
H 7.199171030984271 -1.0909864602862098 -0.6195076121881121
H 6.974662555822437 0.06165732743451645 -1.9435952858487013
H 5.161462875571838 -2.312961662323479 -1.322368571817477
H 4.93364911155667 -1.1624598649372677 -2.655100469631223