15

O 1.992525765855359 -1.739979099080963 -1.3056406651445722
N 3.268700389403454 -1.281356603985683 -0.9620145651146638
C 3.7562476801080584 -0.35818000966230557 -1.8873576463767139
N 3.332239931389542 -0.1048380525605068 -3.0472383238892666
C 3.3664172042414093 -0.9529996821857456 0.4230437241221641
C 3.638173105995511 -2.0654571662762256 1.381949721485838
C 4.706600185828935 -1.0733700886534956 1.052343949708989
H 2.0956230515033294 -2.686486196374051 -1.4105432811532215
H 4.648557724698336 0.13705479934698273 -1.5112053395005116
H 2.4818572519967597 -0.6461871765908241 -3.234423927708183
H 2.7152775230563453 -0.15051967903071525 0.7574634375198678
H 3.7445003825008834 -3.0583745429160873 0.9691856126396784
H 3.159033134446251 -2.022584792404991 2.3531857427219665
H 5.525897027297932 -1.4133781018664293 0.42512283640847115
H 4.976265417524142 -0.3323914309311664 1.7924748145952598