15

O 1.47389072210942 -1.7680636242416397 -0.7239630357828304
N 2.672695567278228 -1.8681775242700744 -0.015881404046928695
C 3.537503137396192 -1.0659283942103086 -0.49466375068216456
N 4.828951219550433 -1.028063970401652 -0.050589615655490625
C 5.199061851589377 -1.7733990287914922 1.1270587435629114
C 6.689268087509387 -1.7716076692062033 1.291059258794563
C 7.319490806800674 -1.3306826054552034 2.3767605681231783
H 0.9059552865734647 -2.397774322417138 -0.2614077833946955
H 3.2826327023503117 -0.3819884143661949 -1.3131269349257415
H 5.295802466447495 -0.14626093481224645 -0.17142793324334882
H 4.833331490278432 -2.801150918862794 0.990220886252599
H 4.7080177818394695 -1.388406048364564 2.0330552517269704
H 7.258795312114401 -2.174916947007501 0.4561622731575157
H 6.7730179217429205 -0.9274277334032632 3.215324682131721
H 8.398077349078186 -1.373157379384799 2.4583768722599912