15

O 1.1490568160141923 0.4220262045379503 -3.1098585521429625
N 2.4335423331368053 0.1582372510036751 -2.647552871075021
C 2.7868158883135714 0.8373144574429552 -1.483204122729753
N 1.9890544331679858 1.3939195762712009 -0.6736309513022511
C 4.268521300076318 0.7942477920372597 -1.2204908830603578
C 5.061146131544159 1.4828745539330503 -2.2850425351891626
C 5.958285106413989 0.8988400454680715 -3.0631385674331812
H 0.6949842010934137 -0.4206319745042569 -3.0672581355152704
H 3.0988986642813385 0.3014785532215313 -3.407228333805963
H 1.0386286090586287 1.3412775069650242 -1.038043022767564
H 4.588980986204184 -0.25373470486325805 -1.1375823003981347
H 4.419691981613316 1.2784081107505536 -0.25497192843484207
H 4.84332289052319 2.540488915481113 -2.412507224691113
H 6.201015962676146 -0.15220609574204536 -2.9600619366652388
H 6.502060306415668 1.4635667104532473 -3.8196427234705834