14

O 3.447468466471217 -0.6175689091323336 -1.3795986912059333
N 2.760751116812912 0.4838298389799445 -0.9008690083687718
C 1.5112156050082362 0.6388238003857825 -1.3863988332753372
O 1.073121473276738 -0.09301673829370484 -2.2648038543566953
C 3.303153486389218 1.0535754288636172 0.2677234964087562
C 4.561902903227033 1.8540747078428939 0.13841973233996116
C 3.273357432887079 2.5536435219808236 0.3986586887383155
H 2.7925609760424273 -0.9747226808947851 -2.0127284156094625
H 0.9689002056149277 1.4695437920225696 -0.9359373445108505
H 3.180556848993936 0.46085611810576144 1.1743113363448587
H 4.990367541489792 1.9328189917847558 -0.8467535077786349
H 5.2875328790211436 1.7704531465847781 0.9462765477905528
H 2.8388874690918904 3.1219540581471192 -0.41009999840458966
H 3.0745842813615094 2.9518482879667323 1.3860286699260786