14

O 4.916083942545247 -0.6725243618071893 1.270569453737706
N 5.075981811678095 -0.23898880451645776 -0.04234167722731154
C 6.300555762788115 -0.16604677759679407 -0.34176894029132854
O 6.7294349344364885 0.22697312463647965 -1.5371700612246542
C 5.730098629804867 0.5657049261503547 -2.482751288649787
C 6.355709825470883 0.9847700685224685 -3.763224596991348
C 7.657324666989959 1.0426499765220842 -4.0142139114715
H 3.96265514630447 -0.6864989320963023 1.3731298698885128
H 7.109965571620381 -0.4182570296076091 0.34678753266141643
H 5.101478131768524 1.378445178270108 -2.07476994057277
H 5.062714718900252 -0.2889454214845384 -2.6337613827666164
H 5.637297234581425 1.2640791437614647 -4.526842061732997
H 8.388854835606184 0.762270103520615 -3.266296108513602
H 8.01902750892074 1.355800240975658 -4.985776227167859