12

O 3.041727807973389 0.28549863780040324 -1.5224468877159105
N 2.4483559472085834 0.2046834949136194 -0.27695233041017264
C 3.226614702251334 0.19698567908829936 0.8471240774209892
O 2.799654650431095 -0.20377018006065487 1.8989175598172348
C 4.623520192791578 0.7766045482612978 0.6826256173677121
C 4.629833745129788 2.0989208788523728 0.07755040922662894
C 4.6268455902021985 3.196203781424167 -0.41930333021607213
H 3.0391762061613776 1.2297645185417205 -1.7390555674793606
H 1.6153583298699419 -0.3718847044097373 -0.2738090555150014
H 5.209637581255871 0.09142358928580686 0.05948864345807704
H 5.058991529873258 0.810375920524033 1.681054074152539
H 4.635596629997177 4.171521242739881 -0.8346887890018803