13

C 1.5076927449910122 -0.8120129752897406 0.4593018192547816
C 2.429758224697577 0.3606154473225375 -0.026077067927637868
C 3.1106126189811185 0.2782285478028509 1.3260963377156796
C 4.040382222218252 0.6789940560283622 2.2327045168072406
S 3.860134365876696 -0.29207774498444833 3.648441764155149
C 2.5543246976127367 -1.2168262229981093 3.01508290771427
C 2.2867088474425277 -0.773201386658039 1.7551643542190072
H 1.6068269942870337 -1.7266039935849185 -0.12462320961977566
H 0.4505707292943424 -0.5563107828450911 0.5323403627211559
H 1.914272497066493 1.2996702427955926 -0.23571751073369898
H 3.0650862269027486 0.12800090972134154 -0.889718215338102
H 4.802654564200696 1.4379584657387556 2.2044806133677115
H 2.0987366949356243 -1.990246122082792 3.614582976756625