12

C 1.3504925205155187 -0.6218983103960354 -0.3010592854314785
C 2.5496474984817135 0.37335085975643967 -0.059409827499338125
C 3.2554925132484023 -0.3866800875317035 -1.1628768325419898
N 4.342705496542653 -0.4826970890705804 -1.8829945061476632
S 4.071067303379006 -1.7477153241951002 -2.911261757868277
C 2.4871150992267768 -2.1484775179222737 -2.375343631492894
C 2.1952094735524237 -1.2612189148488342 -1.3903463699649943
H 0.4260196265706052 -0.13899059400889363 -0.6521040919230175
H 1.1087161478032832 -1.2618390727844817 0.5501300858027816
H 3.0099612877550825 0.293462039247461 0.92865542953363
H 2.332831100981886 1.4128140055523184 -0.2723655628039692
H 1.9375809369095025 -2.9586352872311745 -2.8227948306808592