11

C 1.6695820407345083 -0.1193403492255521 -0.7619905100187995
O 1.459440568485638 0.49406514358830317 0.5688159451087883
C 2.3028737247562634 1.511062772328158 0.1728004171870394
C 2.8977986826572066 2.673949617786287 0.5308833440233165
S 3.857178905726437 3.1710622171212766 -0.829075250518447
C 3.433672523819421 1.8161641262040047 -1.8146730561376174
C 2.585130278759483 1.0351613096200194 -1.1061480390087188
H 0.733233471096373 -0.18761754238193634 -1.2988271500907371
H 2.133405477273287 -1.1067613986316893 -0.6520153081719442
H 2.8683013862700055 3.2712317208097272 1.433240710642151
H 3.842743273790346 1.7336344247973632 -2.809317194005559