10

C 1.6179833524370828 -0.5621815099675319 0.5960439210291746
O 2.1452383311740117 0.5515816025685014 -0.23607485799309266
C 3.02065852108951 0.8257212075726121 0.7805546934288367
N 3.9608545795216217 1.6577054951743133 1.0571263780918112
S 4.463864957018461 1.1951981270328365 2.5840384268328354
C 3.367241573989496 -0.12404591619224264 2.792311519500224
C 2.6189797563272363 -0.18066614041428103 1.6696597954607166
H 1.7780499744579816 -1.510577512961899 0.0939697839211609
H 0.5710687077210178 -0.39279594842920057 0.8324057989337615
H 3.3693527904438243 -0.7134991697881341 3.705917984243146