15

C 0.7195880324158849 0.1080629357585015 -0.019787578618179275
C 2.2065174054784276 0.002402468085037774 -0.021463490092995516
C 3.124473513611622 1.0058731346994358 -0.019149098503603353
C 4.4707805746767635 0.53264998178657 -0.01062249653350245
C 4.570778602041262 -0.818485041716841 -0.0012479743112042046
C 5.802725663533376 -1.65672835094209 -0.000124136507640885
S 3.00145555382901 -1.5266121745953558 -0.010796005601697634
H 0.42391671832432154 1.1637844883032826 -0.03203971319177386
H 0.2730878132576624 -0.3664476069867749 0.8564402855769803
H 0.28592017920461127 -0.36240659050324364 -0.908351571015478
H 2.8497459204878197 2.054498770188549 -0.019847495085289726
H 5.335317000626857 1.1888051910110269 -0.00695522329957021
H 6.689124753836082 -1.015051353064903 0.006857951963509714
H 5.863601385074831 -2.308971134787585 -0.8825560731471741
H 5.85138020835966 -2.3037657711413564 0.8863228499273303