14

C 0.9078569393485 0.07677329687931908 0.05457067813194187
C 2.4005336772516443 -0.005183989682962917 0.05900166648578509
C 3.3227899721993652 0.9947391974310722 0.06308269396788246
C 4.668587989695108 0.5520148527222576 0.075510034916409
C 4.777230310713556 -0.8097190457068071 0.07727339039303877
N 5.896172283259736 -1.5867679852512095 0.07543892880979298
S 3.20219717356472 -1.5403568871477453 0.06786010943124818
H 0.6097291958998159 1.1318416558848214 0.05621738796055494
H 0.4648088791177972 -0.3877192261945207 0.9393413674988044
H 0.4744578668924188 -0.38781444183464947 -0.8243926463888004
H 3.032103397448923 2.0404036254860047 0.06404035493714066
H 5.529894805016909 1.2083864502030155 0.07628876260884185
H 6.806548730090087 -1.162020415363667 0.08130957134620818
H 5.848867721062183 -2.588996424406318 0.08633296016710364