14

C 0.8148056111911228 0.06013289588554021 -0.05116000906175099
C 2.3005345047299732 0.017440586825131006 -0.045091635280377386
C 3.188354283818658 1.0632908536660284 -0.0427049678202241
C 4.532087115253521 0.6099948364442634 -0.03353398378859794
C 5.73780240613944 1.4872011224264916 -0.03157873517107548
N 4.686379074504179 -0.6989313078121346 -0.03377925759391013
S 3.2198205315965387 -1.4199579537330285 -0.0358822242366781
H 0.46950770918318213 1.0965600713098556 -0.04841966545873987
H 0.398884409822947 -0.4419476403206256 0.8267567646927352
H 0.41093620861282015 -0.4355568255702337 -0.9365208583354825
H 2.901238713783109 2.0978081070599197 -0.03988163323035552
H 5.449238322995016 2.5452662019435977 -0.027045228006671078
H 6.360894643078759 1.299454706756196 -0.9074760528127706
H 6.35617144999931 1.2980203681572975 0.8520350699614302