12

C 0.980405687475878 0.12080014799536441 -0.0028043374580365623
C 2.461073266460754 0.09329943478319894 -0.0013614798112818473
C 3.3276850094743913 1.1250663184490663 0.005735576873067909
C 4.734777902335214 0.7339238356109065 0.010552120569665811
O 5.737109165100195 1.4322381911932012 0.006959120196197154
N 4.771327515067276 -0.6480696091443086 0.006651895384817306
S 3.27658254581858 -1.4305212809971009 0.010163092314482928
H 0.6292485730707587 1.1553765685344854 -0.0024039771949762303
H 0.5730952910520383 -0.37123507329040695 0.8803967441826837
H 0.5792299797551747 -0.37278987591826757 -0.8833130468916883
H 3.038854784760896 2.1702417750616654 0.003669472779010421
H 5.633768941373946 -1.161086609194374 0.013764634353992115