12

C 0.9721046671512724 0.0004139404511910624 -0.1050500863780407
C 2.4625810333581475 0.06137695574672582 -0.09486098261610561
N 3.0628635411567964 1.228576326697452 -0.09717356417494864
S 4.69609978443044 1.024687444277578 -0.08640131072630478
C 4.624156565898551 -0.6981591996116511 -0.09321107950250374
O 5.675523571552323 -1.5185279146622255 -0.09210630425697365
C 3.309371846835102 -1.0812801507201255 -0.09212998427778216
H 0.5678455612081479 1.0081346006920615 -0.09867535276136928
H 0.5996593407623774 -0.5291759054360131 0.7837120158050322
H 0.6081364231573048 -0.536364522965727 -0.9828050495254504
H 6.5015438247293025 -1.030921203553117 -0.08944920929226458
H 2.986227048076721 -2.108317336766346 -0.09214807846836019