15

C 0.8250160833914267 0.07866345448014192 0.06395962193057553
C 2.3285353935708186 0.05382296908505342 0.04625853854109348
C 3.107544107465252 1.0698172662702807 0.8966897302323693
C 4.200773241799828 0.11730062816781162 1.423619521106088
S 3.1475194876772044 -1.2730962343952865 0.9775773690816623
O 2.3480999268519267 -1.66433428425567 2.1037179255627625
O 3.7859195321099857 -2.271867684338043 0.1706217820504644
H 0.45485531836594073 1.0227203740917046 -0.3604480978649432
H 0.4468463705804269 -0.018088547914154235 1.0807638039894056
H 0.4053003182816302 -0.7372076350600665 -0.53239478823221
H 2.7287491323667497 0.003774272763172851 -0.9741615098584225
H 2.4853269282808994 1.4407565713217145 1.7158469774266847
H 3.489935042546925 1.917212386649927 0.3344313671305973
H 4.447913504301556 0.16675208489905344 2.4765519214389173
H 5.107757347991621 0.11065540748884263 0.8031784566509117