14

C 1.006464730786607 0.005950507883626107 0.0669558017764997
C 2.5024912008440237 0.07999795769317794 0.06523767738148367
C 3.2305139481640475 1.2390713761601295 0.06012868198310883
N 2.782667106093627 2.5322934331759783 0.053848380690999426
S 4.931133297857257 0.910429439414449 0.06555688937530607
C 4.665549955036542 -0.7865032939071485 0.06401791613167938
C 3.340709930889882 -1.066914588550289 0.0667146416844639
H 0.545437315556289 1.0003857312695625 0.06046183684259689
H 0.6326133549409501 -0.5153540308667401 0.944931826266915
H 0.6314933007951935 -0.5249066519576945 -0.8144817227632639
H 1.80904176866399 2.725319282859441 0.05780376433172163
H 3.418876558706452 3.3039102764732107 0.057380118894945584
H 5.509374786038784 -1.4608191941862378 0.07216932374813004
H 2.955823245696118 -2.0821940178505463 0.06831690126954418