15

C 0.9082141080598236 -0.043326889683146394 0.11727099852170582
C 2.3612149485536134 0.2035609275422049 -0.15865718416250552
C 3.1226135717067627 -0.5426068625630345 -1.183793193125728
N 2.723312593152629 0.8165183649216499 -1.4263308765502034
C 3.647070753958692 1.8388430561722238 -1.5225888534743313
N 3.1456250252800997 3.023805132982092 -1.1007188117121784
S 5.177619314412891 1.6759080267396353 -2.1089878204076435
H 0.7946583931010547 -0.8207055034764295 0.8755642193597537
H 0.39222035413702067 -0.35203260656982927 -0.7850706682194813
H 0.4108182086039708 0.8622503759717709 0.4993891028554058
H 2.9435246568331395 0.555897818935166 0.6912571024108327
H 2.607594487613412 -1.2877230235723762 -1.7881008752812906
H 4.180691650573057 -0.706462217161944 -1.021692192247195
H 2.1527293993078263 3.1142242706668717 -0.9606770077948676
H 3.6963272034926917 3.841746188504087 -1.2473717298363363