15

C 1.0329860372601052 0.07383955623174998 0.04495597686479903
C 2.5352123461071474 0.05593683930330388 0.0224495929317271
C 3.2040641453537115 1.2337023987354587 0.7362269485767906
N 4.4333523116657565 0.6323734838068757 1.2025196107811609
C 4.30351995277307 -0.7101624272855118 1.3438921127602657
S 5.375744029167553 -1.7416426210844267 2.060823154878528
N 3.119388153198577 -1.051333408706251 0.763491664562429
H 0.6494626048942994 0.958626438725409 -0.4816958246769305
H 0.6579362101407809 0.10428789190778892 1.0759442221530968
H 0.6125693018472125 -0.8015177543334246 -0.4420338992623232
H 2.8893283542000905 0.019626409925743497 -1.0203438503216236
H 2.5753534428855214 1.588235993596489 1.561453108745544
H 3.392770445644082 2.0714728075948243 0.058609611203296094
H 5.087021052362517 1.107514883886333 1.7968649851908602
H 2.9740944766855018 -2.0167848291672246 0.5081117363850914