12

C 0.8574691163986798 0.006094001964834068 0.049549015022484405
C 2.335932944351919 -0.07886144069117337 0.054757519158429815
C 3.2231867774798184 0.9275620280176463 0.04869041563617058
N 4.537374710637793 0.5259788507264266 0.05957309449802278
C 4.77983613760003 -0.825855640993929 0.05667345781838424
O 5.846323178082172 -1.3775184587425486 0.06256296685479738
S 3.167617010367137 -1.613888748375225 0.05636849142484735
H 0.5380919866365664 1.053546519084261 0.040997927612469266
H 0.42016555936364713 -0.47295516374478874 0.9230156782362205
H 0.4302962409421533 -0.47312493347751766 -0.839281056898547
H 2.995440731827829 1.9792962119677013 0.05040553386056726
H 5.3261492418010645 1.155580084799155 0.05772522646943142