12

C 0.9932689948186486 -0.04767026416826183 0.08574157540386726
C 2.489262943390345 0.01103064093152136 0.08520532953490159
C 3.2476747855239876 1.1482156434247799 0.09301369666492376
O 2.8786258897898316 2.441107995532815 0.08529161575160799
S 4.909563180295252 0.7348044821941964 0.08449510525792422
N 4.652388231908277 -0.8878700418084375 0.0867793067118336
C 3.360941402453249 -1.1069380330274863 0.08015765330457847
H 0.5411250654633591 0.9482969470779242 0.08302131151899078
H 0.6105087808549317 -0.5681479059454061 0.9693327723341556
H 0.6109177113224332 -0.5688643083088675 -0.7945971483692389
H 1.9109420744152585 2.48875603239229 0.08851012580123593
H 3.017726026613259 -2.133400692627209 0.08785802400946632