15

C 1.0175045776775238 0.0010886086296930646 -0.09226866152161814
C 2.5086443715053517 0.04239813473808724 -0.08809850650238182
C 3.2440630495016376 1.1898249838098136 -0.08607247293917343
S 4.923764160681178 0.8856374097490921 -0.07356911024970239
C 4.662460018712122 -0.8061432516353099 -0.07892426803105036
C 3.3394058843161636 -1.1269242364216248 -0.08605212497846293
C 2.8039165190834 -2.5175163788012567 -0.0926468864256164
H 0.5902980547224227 0.9997098396624989 -0.0923710669693395
H 0.6346095594026673 -0.5368105847610769 0.785936963984993
H 0.6366692484320853 -0.5266556567772802 -0.9744496770060296
H 2.878622986350912 2.212438313385405 -0.08252881065591636
H 5.5091569888371525 -1.486382941047785 -0.0853664955150704
H 3.6143658397474487 -3.2526055757258066 -0.09927762618365381
H 2.179181626503859 -2.703036016094937 -0.9791081964682768
H 2.1713217622988448 -2.7086489275492953 0.7839163220479715