13

C 0.8897969613807064 -0.05112731999425339 -0.06007837896220164
C 2.387078799932667 0.012304805309681921 -0.0560091421099747
C 3.1409229255471693 1.140308235406012 -0.05235525981256584
S 4.817293236809712 0.813740985781197 -0.04779651988754374
C 4.546301637275867 -0.8740316702912604 -0.0463809551663441
C 3.2075602414347903 -1.15060080386187 -0.05455991233297479
O 2.627696039258679 -2.37862779924298 -0.057336791501829805
H 0.4614882617973922 0.9515585831252746 -0.06031199760877497
H 0.5179532051532245 -0.5871135467687093 0.8157430697904916
H 0.5243880168840305 -0.5856771401473704 -0.9336798463526307
H 2.7917525396089062 2.1575411045856243 -0.04748737257127048
H 5.372144253437405 -1.5657705555202883 -0.04691399538014027
H 3.313608626378769 -3.0558725980872743 -0.05263526378376581