14

C 0.8930618299581632 0.14901073660409805 -0.0749866342691127
C 2.374335066683914 0.034666543883198335 -0.07547949982744147
N 3.1820964258349664 1.049036735427919 -0.0688897017842182
C 4.496654364917137 0.6606914765140744 -0.06406518242955758
C 5.572744057430542 1.7050762250284015 -0.0544981083474561
C 4.69180651797671 -0.6909102632433791 -0.06551548314631518
S 3.181983398033171 -1.4933067382973984 -0.07467692240895854
H 0.6277757907447926 1.2018325064649615 -0.06900978668098809
H 0.45256049178306795 -0.3354380131726734 0.8035352171186207
H 0.45025288482856485 -0.32266367900777837 -0.9610901559994977
H 5.114802722144444 2.688898672757372 -0.05455062407184078
H 6.209607665380953 1.6225584505524726 -0.9406483569468318
H 6.2009633915145885 1.609253708020182 0.8242975130901038
H 5.614700552275804 -1.235916441108261 -0.06979433211586451