13

C 0.9800146175135018 -0.07382241024588833 -0.08320950453077733
C 2.4603975450705264 0.07385699367272773 -0.08368680458906262
C 3.1318053215402344 1.2510338227114366 -0.07703936091480351
S 4.832939748367801 0.9489829729521279 -0.07406565222593968
C 4.498552177996962 -0.7551216750171776 -0.070162446700618
N 5.487220207650613 -1.6858066204022324 -0.06325127657901886
N 3.2336519660181344 -1.0559049924771244 -0.07739714068855062
H 0.48215301941081207 0.900149410110579 -0.08436940736395408
H 0.6498248371026597 -0.6244027959552801 0.7991029863920353
H 0.6502686808403021 -0.630827125860827 -0.9620454349864754
H 2.755094418417508 2.2562420760697797 -0.0872024762571682
H 6.454719754963558 -1.424663365679181 -0.059899699998216906
H 5.228998495172648 -2.654232390565738 -0.06589341695339959