13

C 0.8991822845327881 0.07712099331262243 0.01684997661226087
C 2.388237323889405 0.13031654198458362 0.022569176396744703
C 3.12248319443298 1.2820120203571135 0.019858112049560117
S 4.810150226996185 0.9708435219911972 0.030181120037145136
C 4.535476628367773 -0.7366495401489211 0.027237242937446237
O 5.53980976799601 -1.6299420928814108 0.03752930594657179
C 3.2118610577122166 -1.0327152507567356 0.021221083751216244
H 0.4700203058380245 1.0825906166592094 0.007049924896141553
H 0.5224094343956973 -0.44389991652872995 0.8906067972769874
H 0.5243177727795526 -0.4446474814637324 -0.8674932239049182
H 2.757759608339591 2.300366626731885 0.014385295577986708
H 6.391319183625394 -1.1892959516154766 0.03348093274553295
H 2.841850064702392 -2.046003868208702 0.024469953789049034