12

C 0.9720555986161804 -0.085458774612482 -0.08249390936256604
C 2.4439344602700106 0.0473067347613173 -0.07540874824197888
C 3.184243468529005 1.1648071042127892 -0.07926135669047438
S 4.882212032780118 0.8255591617422776 -0.07332040623527228
C 4.5949102888982924 -0.9338437134832168 -0.0723328643824635
O 5.42252276644914 -1.7996210455745398 -0.07058484311976472
N 3.232369367224801 -1.0979557188802278 -0.07088095350394977
H 0.5089622080445159 0.9030539646554901 -0.0849651179412075
H 0.6098588152297025 -0.6234053411538214 0.801887946231646
H 0.6164519014039411 -0.6298479389152233 -0.9612067061287186
H 2.8081877068105854 2.176574861380342 -0.07417273494436
H 2.853917438722238 -2.0271521103387435 -0.07503239012976665