12

C 1.0320540243125857 0.05886774271374695 0.02424393066612684
C 2.5054340093549787 0.19011408185759623 0.02779437186692325
C 3.245699254492347 1.3096959312993974 0.03151509396707123
S 4.942302842447806 0.9777446528506716 0.0410026722825247
C 4.651496257170274 -0.7886341520337133 0.037686753672688686
O 5.480963954372908 -1.6551389361303328 0.03931692271919361
N 3.289362158102044 -0.9518635405065069 0.03653244137635067
H 0.5715801597965673 1.0505000413413816 0.021637683054209912
H 0.6722346079120362 -0.47812881050725414 0.9133692035932838
H 0.6787477968766488 -0.4773724665341801 -0.8612821823964492
H 2.8715543219734974 2.31823637595055 0.029272353201533957
H 2.913450478366419 -1.881516878584398 0.037751766184667745