15

C 0.8735768288941 -0.0547426454616796 0.13248186265572245
C 2.385172891874986 -0.07967065308685868 0.0702778426677861
C 3.0942370359992504 1.098267944944648 0.7866503902291404
S 4.33096490901741 -0.05290263240160317 1.399626041351458
O 4.531284009966435 -0.005018711471869019 2.815090424299822
O 5.463218959094205 -0.09913522380078192 0.5117043310631734
C 3.075248805673043 -1.2182397284636584 0.861325916092026
H 0.46769745222718606 0.8112678391374402 -0.39365179742755907
H 0.5204882872972587 -0.016903256440594067 1.1714261899028842
H 0.45228588388965574 -0.9540458769674748 -0.33557803695968724
H 2.7252723719019505 -0.11583807987988813 -0.969680250634007
H 2.5254245374380715 1.501623786397999 1.6243188409698055
H 3.5004920518306024 1.8955411695790978 0.1661790281324777
H 2.487241362274384 -1.5504710707568747 1.7277110327608054
H 3.453160604496815 -2.0612707557815697 0.30409270481573697