13

C 0.9831495311554238 -0.07567457896643773 0.1420956049548291
C 2.431360640661016 0.1642793053523142 -0.17402345205928327
C 3.130313495548665 1.2638545302158342 0.6271143183496382
S 4.195700820867421 -0.03453587982527614 1.2297284363194276
O 4.003094988441623 -0.34852731164187223 2.6065524814560277
O 5.520861023371197 0.02160385431214777 0.6952088063876188
O 3.253704137620393 -0.95307268053501 0.30281238683770606
H 0.3794097618027161 0.756373886455715 -0.2072468966417836
H 0.8301760087685773 -0.19538800996855826 1.221201682300749
H 0.6314650905522037 -0.9831064333266312 -0.3513034861588175
H 2.5943225882932586 0.26314959355130035 -1.2434041506771034
H 2.5398008811630275 1.7117694659987552 1.4274047886231507
H 3.6712719828230282 2.0119932995049004 0.055489253037149106