12

C 0.8324015964821992 0.1277602880965142 -0.053217816436457406
C 2.3134995618668106 -0.005517088189221779 -0.05993799636990033
N 3.1319605688614867 0.9945129159457312 -0.0635917600193458
C 4.439635961511182 0.5860112495261987 -0.06552161759166167
C 4.615355485531952 -0.7611676515803967 -0.06739952913465148
O 5.747718375756922 -1.5102543534595994 -0.07224095817284677
S 3.092407060606162 -1.556698515705331 -0.059061610940675455
H 0.576854873422838 1.1847055574016159 -0.056637011130900014
H 0.38787734131924884 -0.33794285878909697 0.8295703304855608
H 0.3844670047491896 -0.34465207402129494 -0.9411050756134535
H 5.235581798989325 1.3150696271432565 -0.07431416480048161
H 6.506874883327999 -0.9137868087288235 -0.07673398700068787