13

C 1.057800169701179 0.305483971125233 0.03954079097630614
C 2.5070078368294815 -0.02266429940161584 0.041558459590592
N 3.449314201176245 0.8778345112172896 0.03488743798598607
N 4.69542122532543 0.3604081654726182 0.028505865781454667
C 4.717324758930686 -0.9420500483988922 0.027173930062820026
C 5.97088904229761 -1.737582979979931 0.026175680591640164
S 3.1360936351170494 -1.6348447898976242 0.03895152814638561
H 0.951853913371074 1.3937006590786056 0.039252617952266776
H 0.5719657997755714 -0.10300243808841161 0.9295309686106802
H 0.556776722150316 -0.09843502760196271 -0.8347041662225003
H 6.809198858822642 -1.0577252193529407 0.013882535025688385
H 6.023968160360741 -2.384057740100024 -0.8650092277190983
H 6.033242907700811 -2.380160800944234 0.9008144020575395