14

C 0.8936752485788464 0.004178977428763548 -0.16762277406908427
C 2.386437149944351 -0.050351905614100724 -0.1509257303520857
C 3.2447337435763646 1.0151470324280896 -0.0684854811622579
N 2.847939932484447 2.3518599111071246 -0.027779851334368486
C 4.614751432278173 0.6131532642312286 -0.10727235023014828
C 4.75977629811473 -0.7421422904675262 -0.21081597394558105
S 3.2533818619820907 -1.5280663269834092 -0.2760410119643954
H 0.5084847632677765 0.5190277295387358 -1.0444460848050159
H 0.5081508413001616 0.5254725630358686 0.7219996777510602
H 0.46100617894052365 -0.9939944924875698 -0.15751066215453577
H 1.90921288145805 2.4847051530960242 0.31526302280831553
H 3.4909647745630714 2.9554748618170006 0.4487981298776075
H 5.442918678868985 1.3075776268271118 -0.060784609301128514
H 5.678964520039791 -1.303025950430631 -0.2551193576822035