11

C 0.8372738669517396 0.010180848485489901 0.04548745279088272
C 2.0423095183510145 -0.014077304987091373 0.05008125459450176
C 3.4456284333323524 -0.058188907414914975 0.048169338855810935
C 4.338261333725418 0.9902438791737606 0.05026614933015396
C 5.6820072856307435 0.5682150073375176 0.059655506274711036
C 5.808793324483682 -0.7979535492305624 0.059060523485078495
S 4.290056161061209 -1.5629344151068327 0.05649399221338396
H -0.22489989661406035 0.04819780568176543 0.03956723769884363
H 4.01054905833852 2.023860382884111 0.05489126220063491
H 6.524727021587496 1.24128714955399 0.054752065463906714
H 6.710683172538479 -1.3797620548732792 0.05942436350700261