15

C 3.547567733880835 0.11061147527071491 -1.2366857735026244
C 2.561420314682053 -0.038913955883576906 -0.08011599153855432
C 2.944142477045466 -1.0898148609508636 0.9111553601569237
C 3.3653034332632963 -0.9158764376365943 2.198075348319997
C 3.6726524497022517 -2.1347512884256896 2.8637672428185628
C 3.474626667890768 -3.2214620891240915 2.0713508445752633
S 2.9223643358270537 -2.768482113374926 0.518937745707712
H 3.2306495974393483 0.8981494063254153 -1.921833923812521
H 3.622069726796129 -0.8164777393646824 -1.8066622292468826
H 4.539895671683256 0.3518206112271923 -0.8674717394605614
H 1.5617227984650173 -0.2592014983107315 -0.4798817709288401
H 2.470707036442412 0.9054234498908164 0.4613327967473118
H 3.4476157653743136 0.05732329326899171 2.660690440680922
H 4.0139768816688335 -2.1988208189794123 3.8890928848954185
H 3.625129884166273 -4.265234190853715 2.3084037960217274