12

C 2.803513069878339 -1.3420327255168694 0.364055285402791
C 2.422798475068986 -0.08378931695252965 0.12302283435790408
C 3.0901114885791654 0.8740534440924518 -0.7282237857761749
C 2.703683530708195 2.1621506959742165 -0.984748846662404
C 3.606838601716967 2.7981815967671295 -1.8643401376216402
N 4.626376774325713 2.080349565915196 -2.280312546012825
S 4.528113971689579 0.5894309673419457 -1.6171030203813488
H 2.2389939649289907 -1.9824186720188806 1.014984623605688
H 3.702806118935224 -1.7629949793390947 -0.09274130484152486
H 1.5180765552728352 0.28384694413365513 0.5981060313670871
H 1.8275171070867855 2.6236489126653444 -0.555321907483595
H 3.513880079848597 3.8229270863254605 -2.2087916465806936