11

C 1.0135974154417295 -0.045667590064961835 -0.06553630892242837
C 2.211223181586734 -0.015927539141906533 -0.05533330421239875
C 3.6276660367114126 0.0017368494394482958 -0.05836577310562777
C 4.382438278489965 1.145522779896926 -0.054900099600541666
S 6.046022683306283 0.8060999440730685 -0.0552234970379884
C 5.773399468046735 -0.8724161686029379 -0.05192855719258254
C 4.450561830178424 -1.1668229432091837 -0.05588511006869103
H -0.05298491163915034 -0.0586099923726278 -0.0669753203167792
H 4.029376858340592 2.1701262759814677 -0.05418294598301653
H 6.608709776960684 -1.5645251167555967 -0.05058872752727481
H 4.043979844374971 -2.174845676315514 -0.05637021026848467