15

C 3.633657607147223 -0.1068170964555751 -1.0922455122294616
C 2.607575922438719 0.17847890514149747 -7.791686947282699e-05
C 3.03655559491134 -0.27318531422142256 1.3624938143323955
C 3.363384486822497 0.5637336759752238 2.385927619623016
S 3.837415617077252 -0.28922458826691727 3.792541938586592
C 3.606474538454746 -1.8027372123408762 3.0157918260507905
C 3.1795612700705083 -1.6404289103120582 1.7384936129499018
H 3.2736688838880146 0.22664277388207602 -2.0628440482334374
H 3.8572361688706236 -1.174008313700825 -1.1579396333326026
H 4.57669793086817 0.4082131829743502 -0.875237330145168
H 1.662159897212338 -0.3146984682568422 -0.2662424329587597
H 2.3937167553431973 1.2498539021993136 0.03367647530892588
H 3.3419037754507 1.6442124649930647 2.3888438969256915
H 3.7952300460302952 -2.7183141471384236 3.548153358940643
H 2.9776042582772697 -2.47392816812702 1.0714834220007488