12

C 2.617462851049016 -1.2254835159900113 0.342180525016043
C 2.232820155026904 0.004638902593033611 0.002954714681793654
C 2.86129609244885 0.8359482212227117 -1.0124804280253799
N 2.3560939019725273 2.0456125801884064 -1.2247160550511302
S 3.20770907870152 2.79435948156226 -2.3961949465631927
C 4.290738567841855 1.5227513499887635 -2.6520428068110835
C 3.983760239499857 0.5055401011741271 -1.8182989435667953
H 2.097905023767843 -1.7811857964224886 1.1161266004690085
H 3.460550983141923 -1.719915645512858 -0.12956128934098698
H 1.3844820474705526 0.45760716192840184 0.503168782908492
H 5.083951244317929 1.5788849914606689 -3.3903585597356396
H 4.516457604951844 -0.4359938319714293 -1.7722650037075494