14

C 0.9331782674340662 0.06209493457079229 0.033865844275699095
C 2.447474359118116 -0.07017443541582329 -0.11544880835892873
C 2.8392353968336868 -1.3233410760295192 -0.8389714488047678
N 3.1472287357572797 -1.2675703410812962 -2.116349961764075
S 3.505668880120485 -2.767428250966785 -2.667288866405958
C 3.2537843843473184 -3.5431417526305107 -1.1749286715492293
C 2.8960476440591685 -2.6149549533734295 -0.2512344683099832
H 0.679018759739779 0.9786888953241236 0.5693263906624301
H 0.5162221255525935 -0.7822953979922664 0.6026628557813336
H 0.4426782275959794 0.08309867836722615 -0.936089138806974
H 2.919322055469665 -0.05317297290473286 0.8640636903135098
H 2.839122649435735 0.7802189221888163 -0.681362561301163
H 3.387844142335778 -4.607262716097854 -1.0417151678699665
H 2.6803499276234106 -2.824503761663123 0.7830159306617185