12

C 0.8070415287911037 -0.05868532269740187 -0.23225723862630476
C 2.0109262035963664 0.23630447593507553 0.25688457168061213
C 2.791443538033433 -0.5528935140986643 1.1754673419129882
C 4.038447603282422 -0.2547283788216039 1.6753713091049267
N 4.585575348488499 -1.1461867042769054 2.5435784387437494
C 3.7832652374909235 -2.1461088726026043 2.720432939636926
S 2.3075665398644234 -2.0622257013856276 1.8418068772282494
H 0.30889939126126165 0.5987643653832928 -0.9291697501095427
H 0.2900569156054899 -0.9688734941285396 0.03461320983766884
H 2.4917917043218263 1.159960593857394 -0.05202411302752037
H 4.576813597985789 0.6474937839341411 1.4245901374146195
H 3.9952767307436914 -2.992112862144204 3.357032290371515