10

C 0.8616140507407771 0.06035968060083233 0.09181293490238938
C 2.059241331418993 0.012607312047068307 0.09452651159442516
C 3.462509500266526 -0.05215688670164874 0.0982971775214443
C 4.375092562182561 0.9782117889828166 0.09710963858630525
N 5.679141653967212 0.6189890957678476 0.09988526371910533
C 5.797027808034411 -0.6750160908512941 0.10141301228912213
S 4.325721143808254 -1.5417224288520468 0.09566669875076259
H -0.20048318644566088 0.11310878845443005 0.08765281582624625
H 4.09906601026787 2.026197475675178 0.09036982037218776
H 6.749162305953892 -1.1871947082207424 0.1026681069731668