12

C 1.2080022616692307 -0.46346328521384744 -0.5054464542834647
C 2.1115530776691562 0.2095900044739228 0.20849628936092335
C 2.9208409812556573 -0.3326954978366803 1.3009084285981134
C 3.840603511065465 0.3979895783853791 2.0080536680240217
S 4.550521999883267 -0.5820856242557809 3.182967213177533
N 3.6998164191547906 -1.9264584883653861 2.8061026443542536
C 2.8882862110259935 -1.6514450777717953 1.8163783138993093
H 0.6591265021050047 0.017979906263484374 -1.3048730370973796
H 0.986405986990363 -1.5071469052528914 -0.32550992176797056
H 2.294186730878122 1.2527718324166586 -0.02869230379449819
H 4.108411463072282 1.4393740244420656 1.8781253432312937
H 2.248157414476215 -2.443953092614299 1.4408381776640753