11

C 2.036664865704016 -0.9330362714063778 0.9412198324825315
C 2.469943032938099 -0.001226319538491635 0.0926344526609123
C 3.144996101066272 -0.25552645280142033 -1.174925361978106
N 3.54092488420585 0.7544069584829707 -1.9274022228097445
S 4.241617982488178 0.13589851487000132 -3.243445662120297
N 4.068632567275044 -1.4441522610116906 -2.907254867139852
C 3.4593305165764248 -1.5131293681755957 -1.7494937039024614
H 1.5462463312920562 -0.6518490550128085 1.8651200395069167
H 2.148000486799577 -1.9930606395101005 0.7459252501552494
H 2.3378458524964 1.0551569752813237 0.33248334001962143
H 3.2344764045242744 -2.4895528253088433 -1.3220056336614707