9

C 0.9504914006787165 0.07769725834925804 0.014406409850516062
C 2.151846040962484 0.12866790494789285 0.01474202142485191
C 3.570231207377721 0.15404768664656546 0.014497737351349366
N 4.256529852433674 1.2912716942953941 0.021641017709051136
S 5.8217741468832225 0.8880923847175949 0.020523963097169685
N 5.682082655299288 -0.7238885251477363 0.01772865857924542
C 4.402138114451792 -1.0035715689615625 0.016021423982054778
H -0.11394836855922649 0.03398551348195754 0.010876598627910334
H 4.05070554420252 -2.028588543089478 0.008105785410577979