13

C 0.8307249208251946 0.054729853468273235 -0.12787966748092802
C 2.334752051711883 0.08572326783148705 0.14090825886436006
C 2.7214267256358595 -0.7376881884766662 1.3235398054303584
N 2.678570072446426 -2.0559990035596525 1.2975362572042386
S 3.136309177204645 -2.6031570349001045 2.7491105040186192
N 3.41691779247374 -1.1808944676091997 3.4701270050369857
C 3.1512675959285574 -0.24207210446554941 2.5881458983348877
H 0.5844187771806364 0.6475353904619647 -1.0020189249789897
H 0.2792599004734623 0.46638939831834086 0.7284246144959632
H 0.496935642679735 -0.9640918562603352 -0.29361120152086195
H 2.6720726730192284 1.1105798904532753 0.2930274027394726
H 2.8715568459224676 -0.2993251668949419 -0.7348086508487244
H 3.2721778222594704 0.7982187371194528 2.8474065997087927