9

C 1.0376652172603438 -0.0915780038520674 0.040469858638281904
C 2.2304262153736287 -0.06603410956926646 0.04477137910784802
C 3.6446035959121885 -0.025802277162128462 0.048664570762009425
C 4.419499629635069 1.1100782542715093 0.0416195916835046
S 6.035256794521494 0.6505648645326806 0.04241378128722929
N 5.645237448062881 -0.9950209817213312 0.05031523694126614
N 4.38953489241329 -1.1757299675961668 0.04459758773588414
H -0.03174551719048118 -0.12857327298650856 0.04267579038941298
H 4.085768096445233 2.139076881791954 0.034212352130394606