13

C 0.8873313061588397 -0.12686915995943085 -0.21479085588270286
C 2.390534062157172 0.008524047353970486 0.030010802714908014
C 2.761107940351927 1.3396805325886212 0.5974397243700622
C 3.2153705150566134 1.6129714864263247 1.8558284408744483
S 3.4553063389326697 3.2779018385017977 1.9784850333491193
N 2.9576695813758076 3.539562524664257 0.3994607961058089
N 2.636392531607713 2.4526837916050117 -0.17342558889323978
H 0.6607082427277851 -1.0982944476917982 -0.659301588924542
H 0.5415731456591096 0.6545642910076938 -0.8855457229389861
H 0.3313482315677731 -0.04124556416850992 0.7172850323289428
H 2.93188676542622 -0.1290198233640822 -0.9049278585808594
H 2.737135556717268 -0.7780979403582813 0.7127261728729402
H 3.4049735180830707 0.9201428070846253 2.660934920514614