12

C 0.7524743451507055 0.03152437384874414 -0.11461345020262802
C 2.0259414753234837 -0.014219852874756382 0.26516340274367706
C 2.7425229867793455 -1.2023674080100488 0.7008442511740344
N 3.996259803320027 -1.1612404865075263 1.0565723372594091
C 4.449596736577163 -2.3949106789373245 1.4202923656620634
C 3.5290703892964093 -3.40030324322779 1.3359635892594273
S 2.0440461846871307 -2.7808852542560807 0.778384687165847
H 0.295239901537241 0.9674779283531718 -0.4160661083900168
H 0.12305178302352145 -0.8486152663986878 -0.13845675079923705
H 2.6288492277259503 0.880568411031063 0.2792149877359881
H 5.467518821291912 -2.521419296292106 1.7455575124110407
H 3.663493532694387 -4.450691063404886 1.56725565403529