10

C 0.9728938553203684 0.038422757243854425 0.036583400630171015
C 2.1781420495030215 0.017283806151226946 0.03492169395935857
C 3.590866670940366 -0.053340256127033706 0.03227525471095173
N 4.396669136601347 0.9684657913590147 0.01988368786827783
C 5.689086118709781 0.5652613735069199 0.017746535121551082
C 5.892492831937304 -0.7848131461782908 0.022667060335845923
S 4.38445342302102 -1.5868350361328236 0.03432907007879987
H -0.09462415966031537 0.07691775673647248 0.04140193468277096
H 6.476070499532684 1.2996930885982965 0.022647453559873416
H 6.821370578436192 -1.3308573365406862 0.023011143587096602