14

C 0.9094616731069924 0.372111770447377 -0.028165845297593254
C 2.3859636870527376 0.01563931651955652 0.10782704595250406
C 2.7146959298300954 -1.303540159274564 -0.5008241596864089
N 2.696317261809135 -1.5388473947769472 -1.7791190597269397
C 3.0066455963634886 -2.8335487041566347 -2.0502354250211687
C 3.2544819897660293 -3.619277510561729 -0.9739125523220451
S 3.107417353567726 -2.687831193883427 0.4476579997458145
H 0.7046689480905951 1.3588695740468437 0.39294430515116674
H 0.2790933751557334 -0.35128007200319755 0.4928449756995069
H 0.6133646984752362 0.3831601943781303 -1.080961174642757
H 2.6751894851518165 0.014951337148293225 1.1630939664941253
H 2.9926499353148337 0.776690802343452 -0.38718661090202156
H 3.0388291583027622 -3.1746785080341526 -3.0842322996822777
H 3.5214437498216666 -4.665013976116194 -0.9420582699171698