11

C 2.2462296042838155 -1.0641386208061616 0.7016073280429017
C 2.2954085309121237 0.035801075073214575 -0.03702640202605256
C 2.970246565933184 0.11658585605765046 -1.3299769667144938
N 2.9796479331819037 1.2441667742110274 -1.9993017069275947
S 3.80248346119955 1.0082008649862062 -3.389141129661987
C 4.107843484606682 -0.6305019157223172 -3.018360033584777
N 3.5964008632769375 -0.9747044027947945 -1.875334832433688
H 1.7308760518197295 -1.0793012514256664 1.6532571540384475
H 2.707717489284618 -1.986693517658804 0.36467628582876466
H 1.8319951230549083 0.9652227928298366 0.287180400212493
H 4.6581132769671365 -1.301800960575214 -3.6615396432332905