9

C 1.0386297251883012 -0.11533670856392379 0.058554362383122456
C 2.2372681973049846 -0.05352257921006826 0.05685689888154223
C 3.663114820032264 0.006502597262243685 0.065346263437601
N 4.282027551045577 1.1663672618239866 0.06180608830513071
S 5.888993520853002 0.8667688370779322 0.06593349731496073
C 5.658613199899883 -0.8190004245849355 0.06543208074703982
N 4.402427300179158 -1.1453452182960178 0.05793763888418699
H -0.020582961017453643 -0.1614824037403364 0.06451557333848482
H 6.474306180633995 -1.5365792177802147 0.05805363593803079