13

C 0.9694706564941605 0.05479693711337591 -0.19446424829339728
C 2.483280691559236 -0.09280396713721512 -0.05486074924687186
C 2.9244743157854556 -0.2586679392200531 1.3633304389932714
N 3.39761325484384 -1.3649612783706704 1.841501467769217
N 3.716483685923822 -1.302037178440522 3.1529585699331353
C 3.4953142903960095 -0.1298181950838873 3.658950055455043
S 2.8488427017841835 0.9957797002758568 2.5387817424202046
H 0.6933425902717313 0.14146086670579255 -1.2508339603730738
H 0.6077295740394579 0.9516639630948327 0.31995522363031603
H 0.4519319318920489 -0.8023465324086034 0.22251673890019724
H 2.9798334532935025 0.7601014373840145 -0.4969135427407313
H 2.826314312526547 -0.9860951890725098 -0.5886552849819017
H 3.6878302019897538 0.11370045859311735 4.687769145069431