15

C 0.6704850708032123 -0.03777807489847735 0.09383590529660617
C 2.127410186972456 0.11100059754889008 -0.2154253777473689
C 2.952807176345809 -0.916273816020102 -0.3617510774799474
N 4.318604750059971 -0.7980715145291926 -0.5694860702928732
C 5.192228670765606 -1.767893973380608 -0.9386533414227063
N 4.662100831914936 -2.976984000168133 -1.2521002608836636
S 6.830155875514286 -1.4907540582178405 -0.9581396667588105
H 0.41151488525673513 0.42937491964615493 1.041280814352256
H 0.3820735398486472 -1.0885565706457936 0.13715806389416133
H 0.058952948863891505 0.4486493986783642 -0.6772551763256789
H 2.5199724338206995 1.1172831120150732 -0.3000940866296772
H 2.593846413830599 -1.9385533397637764 -0.26338212269270533
H 4.767230467374459 0.08979690480759735 -0.40974201596402027
H 3.715119580591145 -3.0339589127538447 -1.5919903028085787
H 5.315037750950928 -3.6376588948634225 -1.6075706044917957