15

C 0.8044127699584553 0.15899606332509186 -0.06579706089263747
C 2.275788572879496 0.31218949587464084 -0.12828219681490538
C 3.112577230556906 0.0932248935330019 0.875298487275506
S 4.835605741144735 0.40186536336138595 0.7085521154354304
C 5.563414428861245 -1.2032830825438634 0.8072119404632276
O 5.075205409363112 0.9103462371855235 -0.6165174753070198
O 5.258347309502374 1.1511156640393188 1.85604389310173
H 0.46282404787429987 -0.5628074141673712 -0.8146796401218002
H 0.3190859314542062 1.1104537867496684 -0.2887981811035385
H 0.4649172431141689 -0.18444605835581132 0.915614761780978
H 2.7110952392225824 0.6413950556924956 -1.0686584355853537
H 2.8048024921996086 -0.210203764978492 1.8713586372826692
H 5.223098375261704 -1.810310638608706 -0.03066488563599343
H 5.305178824419585 -1.6599525835981763 1.7599966990016163
H 6.6430434596814125 -1.0382407689511042 0.749478788164522