15

C 0.9884209735096905 0.15903387951335074 -0.0680139371814796
C 2.475484517339647 0.08226690774791316 0.028792799157914297
C 3.243157716080501 0.6744967890780519 0.9276167202142444
S 3.30370344564077 -0.8469143681715542 -1.2578037626131278
C 2.904686369792893 -2.530543582596947 -0.8797475362675318
O 2.664255595881515 -0.5096253446012474 -2.4973875483041823
O 4.723823108289329 -0.6914057888224671 -1.105703747324321
H 0.6003503653287555 0.8020542861081078 0.7208930844881276
H 0.5243246391888335 -0.8276604244990688 0.04144022035230891
H 0.6903370344804949 0.5530209024969391 -1.039194870079878
H 2.8073164266022976 1.2952992551801146 1.7009727301833149
H 4.3182581489442855 0.576170598758337 0.8829968339202646
H 1.8213452500951193 -2.6760910636749657 -0.911137674140308
H 3.3147647063087637 -2.793733748791662 0.09147464345010096
H 3.377995381108816 -3.1225837102833935 -1.6689625346520618