14

C 0.9797103023498526 -0.10182495616939832 0.0933360326053788
C 2.4590802846685196 -0.0381451573512299 0.04460925828213494
C 3.237486885237327 0.44614742520045164 1.0020782558283299
S 4.98668770607212 0.4259382996218371 0.8859403674567686
N 5.4675429199251955 1.9851510889795725 0.8052240822298584
O 5.482593566677604 -0.06962207216244709 2.1287478398956265
O 5.332741021669045 -0.16493200252832216 -0.37680653105199796
H 0.6397956200421991 -1.1414275813045902 0.007457432323007401
H 0.5442251683929192 0.4393096010839059 -0.7507822062188615
H 0.5853256015812801 0.3147897212574884 1.0239220056866216
H 2.9512351401973715 -0.4408668174182785 -0.8492284216592961
H 2.8539948574151577 0.8393275690645997 1.9376514217751613
H 5.357496892995476 2.5005672749885153 1.6719022084367385
H 5.173765247730695 2.478902172979109 -0.01728171444277448