16

C 1.2222383630357696 -0.05947398327769631 0.25945516227291743
C 2.723389877823175 0.034025377730991874 0.0924033511298461
C 3.103779940258443 0.5018790486238115 -1.305120127655996
S 4.865312888480836 0.6116450374705583 -1.5000549860512784
N 5.0262581034192975 1.1345307941211673 -3.0534384315073644
O 5.352181578916231 1.6452412054225443 -0.644399579064802
O 5.403199379233223 -0.7233025429026735 -1.4393508257533636
H 0.9577524396077748 -0.39837133426507737 1.2635865176526133
H 0.7793533590808425 -0.7580640393152418 -0.45857545311650144
H 0.7436975092026257 0.9091479219586905 0.10394701363445162
H 3.183675342280065 -0.9521904081161007 0.2710195192453907
H 3.1500139798896347 0.7124544159223475 0.8263267247841791
H 2.712269101541984 1.5052238540745881 -1.517648103988006
H 2.753769114708924 -0.17473715738051224 -2.085218406658524
H 5.462365539554099 2.0487487089983656 -3.098139230081841
H 5.496170131846099 0.4501390745681658 -3.6346505635389588