13

C 1.0212453648572664 -0.024738442634365036 0.020274186383414376
C 2.503415603334504 -0.11676751288593447 0.025957183701904023
C 3.2515836975515784 -0.33541464021576634 -1.0384851895359823
S 4.984846299030388 -0.3560636273462188 -0.9272701308482529
O 5.311114235104015 -1.8798134768029247 -1.287126333177477
O 5.541058796303402 0.42766861271859596 -1.9877165839600461
O 5.3843488328635605 -0.16405089148363178 0.4241452335987412
H 0.6912609989187112 0.9485580939198245 0.4039822738988103
H 0.5912374819560223 -0.7794156817200505 0.6828876612152224
H 0.6069929941517687 -0.16686557845168826 -0.9820188410150597
H 3.001133490236945 0.010423402338010982 0.9877969272535597
H 2.8647982496064794 -0.4590118333892338 -2.0440490466024555
H 5.754812101680744 -1.888941384906153 -2.149117478310185