13

C 0.9759911301103341 -0.06096619407789876 0.03816443106814871
C 2.455942121192372 0.12751059738546872 -0.06084370450692539
C 3.176980491131854 0.26080601947304427 -1.1690835449639798
S 3.307274243707949 0.24072375798229761 1.482385058796577
O 3.086627546934965 -1.2252401036520155 2.084627039577825
O 4.706807330228888 0.4002485548185246 1.2652896585864737
O 2.5705845899563013 1.1138625781934686 2.3328117897995635
H 0.7402900521784046 -0.9794414209019083 0.5757418868016045
H 0.5434942311426348 -0.12744362403181234 -0.9642881343275097
H 0.5212999060619468 0.7640713164729919 0.5723099811394228
H 2.6957910424483194 0.2314661544155106 -2.1350209111722274
H 4.2417290401626815 0.41882634428168397 -1.1284099648475137
H 3.8564667513329787 -1.7640624490646113 1.8435072144477342