11

C 0.9059497132823433 0.03313023831242318 0.07997217415168002
C 2.3519935019724754 0.055521583794732786 0.04911588281879403
C 3.559677343237268 0.06980199292898799 0.01917968905519031
S 5.2525786055221575 0.012033310770036576 0.024448914011713972
O 5.6216723634586 1.2965062017820161 -0.8278340196169278
O 5.7012198056446275 0.23275376135602402 1.355925304004058
O 5.669195817016253 -1.1053301444942056 -0.7444339420249433
H 0.5362765589708156 -0.9636500600013572 -0.19986548418787684
H 0.4966391755801095 0.765219498860607 -0.6174945988960531
H 0.538737573142237 0.2689600422648784 1.0795459387382436
H 5.718959023881853 2.047545604404851 -0.22461045686117173