15

C 1.7074479200861168 0.5302734694718974 -0.35468785962293825
C 3.132197205604002 0.04433666365489154 -0.23263350249711956
C 3.2128454087600202 -1.2585588359217754 0.5391690543742824
S 4.8842255145501134 -1.833192956609989 0.6825706145193194
O 4.693779050499042 -3.1336513456037065 1.592484083215835
O 5.35299307011807 -2.2667509531631453 -0.5894256288382604
O 5.621444779304267 -0.8943506579410555 1.4591060818170003
H 1.6581329467840291 1.463061164315028 -0.9157310544158291
H 1.2595373880587823 0.7116245041457043 0.6294750058637577
H 1.0813822001385096 -0.19522125964902562 -0.8851562590359412
H 3.7449299177350044 0.7941955849688692 0.27449031017785036
H 3.5723964176894047 -0.10665375101584249 -1.2307627697109644
H 2.65324231311578 -2.055719950552264 0.0510796825684165
H 2.8470185457994672 -1.1451212933741068 1.5666225796071245
H 4.852871123922546 -3.9032740775060404 1.0246100382104395