17

C 3.4893776195423154 1.2066299038531392 0.030819630347418574
C 3.527352728005244 -0.2530594847059652 -0.3644006309041104
N 3.400334926867399 -1.1783912303938862 0.7528584027005648
C 2.0520338683545707 -1.6184493536940505 1.0411352941784402
C 4.429279922894129 -1.486956532964707 1.567830369322802
N 5.6350355369205305 -0.9434470982291808 1.2411764697226155
S 4.321783403394246 -2.431013923972511 2.9319668679438298
H 3.5514296422365517 1.844099500456241 -0.8576262262301237
H 4.311787429103266 1.4576695730286875 0.6967621445119442
H 2.553618084926559 1.442644749845441 0.5453333274142951
H 4.429825583884324 -0.4816039410312489 -0.9402880647984353
H 2.696397073302462 -0.4748482137873409 -1.042113439077309
H 1.4088188369191095 -0.7648611830407547 1.297192573691832
H 2.0837119287771864 -2.294038048885682 1.8922351047872792
H 1.635201627530697 -2.133513257655745 0.1705601589455397
H 5.828109682340094 -0.5804237533210249 0.32372539838083614
H 6.408130566088477 -1.3061469286863907 1.7639806055602796