17

C 2.2971600679652107 -1.5895011361658333 -0.4045714959126985
C 2.2530523374413236 -0.12124984440651636 -0.02557816934052403
N 3.1495564030840497 0.711038637018177 -0.7746707149774996
C 4.494344957320975 0.8188269897232288 -0.623961582325029
S 5.4127365572757995 1.6917991957786362 -1.7100792345500528
N 5.034058396174685 0.20027458382897226 0.4458723295198058
C 6.432517601934648 0.28803456408621164 0.7868812180154996
H 1.588762588965136 -2.169954659114387 0.2109061933635006
H 3.294246439786389 -2.0106522410476155 -0.25595049923098395
H 2.0215506778897763 -1.732992429174832 -1.4440758232468636
H 2.444849645402856 0.014218493140960378 1.0545139694497563
H 1.2452532014533686 0.2714288054209159 -0.17826739210648165
H 2.8186203456748076 1.1499709949871773 -1.6252858053140913
H 4.412916119152684 -0.2550070629394915 1.1034194169829614
H 6.725237655609334 1.3091434499223844 0.9954972260365007
H 7.040914176156891 -0.07629653713698673 -0.037598717105933946
H 6.604598477741266 -0.3369752102732519 1.6650625435981472