15

C 1.2309841768888612 0.2611173218777304 -0.17875421408135342
C 2.704465638512006 0.061161504632593795 0.08193406932281472
O 3.229607025845594 -0.7407110619746339 -1.0044743084501917
S 4.782672351897404 -1.0709602336146407 -0.912194351268827
C 4.896287449395155 -2.009949596051034 -2.3983716539126045
O 5.527113058360951 0.1401807959518671 -1.0525073279553707
O 5.026928608125026 -1.9103323939820045 0.20729795555264408
H 0.8016958280299444 0.8637258008452212 0.6189175826274552
H 0.7140823512287269 -0.6974226428932596 -0.21201493123833975
H 1.0711197593517352 0.7769650425374564 -1.1334133109124118
H 2.8742542581777464 -0.46712322363989905 1.0230502902879577
H 3.242502644382994 1.0131596016709625 0.0938076769922167
H 4.61470322866846 -1.3875600015074263 -3.2433784807245583
H 4.243305636363726 -2.883488939094481 -2.312622834405148
H 5.935786412144462 -2.3209314112281736 -2.4827444262153455