13

C 1.0137723634784768 0.15374717030420518 0.04427270503403416
C 2.512366111786734 -0.014497857577992025 -0.023341504316840466
S 3.1047826017980977 -0.6244229240489505 -1.5780696243835908
O 4.5333527793290775 -0.694195561765265 -1.5366430082091735
O 2.3249406646209234 -1.761739771733973 -1.963866121131204
C 2.6862137793434213 0.6651416718062266 -2.656100990214584
C 2.4161379326194936 1.5486782105611647 -3.417015867192742
H 0.7175180460698908 0.4871608544590019 1.0421606152389902
H 0.5105357750957366 -0.7958216597820439 -0.16956300052699352
H 0.6617551381975461 0.8926606333374817 -0.6778428196193298
H 2.8835279377168055 -0.7718364999910049 0.6816669701883386
H 3.060871763851746 0.9159104862325271 0.16259964732462584
H 2.1823598963448445 2.321048354818805 -4.107117290969446