17

C 1.1329791681421117 0.20177128019677568 0.2071314250482828
C 2.6336399119045515 0.07322606812505102 -0.013558788266618337
S 3.1617183531157163 -1.59182272710946 0.33490506245893115
O 2.956582694262897 -1.8402213578348787 1.744528866777732
O 2.5534094224468356 -2.4670001887071837 -0.6313403115420048
C 4.920983342292835 -1.548785788341448 0.019579133941262535
C 5.523719254618034 -2.922293135246691 0.27819954590179297
H 0.8212126331452111 1.218973717844335 -0.0072399519859129985
H 0.875599143409192 -0.032231447472394974 1.2347491148754426
H 0.5854545703132096 -0.4732211740275144 -0.45148232194047744
H 3.197527621307532 0.7312398486483203 0.6453903297859701
H 2.908290313727358 0.2830120921696857 -1.0572894847043668
H 5.334117626250019 -0.7894469308861223 0.6858158939215282
H 5.043499393869686 -1.2419743599108923 -1.016264509946389
H 5.365091512621409 -3.218681637260331 1.3150591486904115
H 6.597056459553054 -2.89220530950349 0.09483007637009214
H 5.074865424942769 -3.671962735791982 -0.3735215067423235