10

C 1.094962746292411 0.18761137822124394 0.22760843271681827
C 2.258361183568389 -0.19097616986156993 -0.2784574360366349
S 2.9989085104790285 0.7415081154545988 -1.5585144869135266
O 2.1749369796139786 1.858791892447615 -1.8917223631184508
O 4.393310320883788 0.8746073524988869 -1.2927585962428811
C 2.85825831900396 -0.38990323231577134 -2.8910995264770083
N 2.7721840823476884 -1.136908854147117 -3.7625865538437733
H 0.6517066576610372 -0.34928787755891827 1.0499618065801397
H 0.5707189903274035 1.0446335933541757 -0.18025792733241913
H 2.860690439842688 -1.0210153038557959 0.06996014801423901