12

C 0.920840713068209 -0.10593085794409222 -0.0035414651605981183
C 2.4255338123700736 -0.11201618758113932 0.16518263432784436
S 2.9854146242292128 -1.212868604431574 1.4382964749946936
O 4.411484564596495 -1.2253618023328634 1.45914127968333
O 2.2223856882061725 -1.018156914059234 2.6303563307001863
C 2.4755940699473538 -2.7596570671046834 0.7711739981425789
N 2.141699734488569 -3.773322807448991 0.33335285866727155
H 0.648308521993843 0.6062433652178427 -0.7761806641253778
H 0.4231748881813659 0.18006588510441832 0.9188295795379438
H 0.5469331540186313 -1.0866636594312349 -0.31350515918413463
H 2.8179660029057083 0.8563942056951892 0.4980498484854635
H 2.9693888699750146 -0.4039908295412008 -0.7349720313439176