11

C 3.2354331960650464 1.34025312702237 0.5807390729865041
C 3.2559267178177596 0.06820974294049355 0.23566751995583624
S 3.259583786316238 -0.3880905783216035 -1.4594181539582265
O 2.4377240330374073 -1.5464067516546063 -1.6260078104137985
O 3.0854880179510684 0.8011516666147296 -2.266363814244327
C 5.033450965151446 -0.857986849602328 -1.728058518764428
O 5.381846780203863 -1.9812691083214016 -1.8425136425331698
H 3.21188401464237 1.6422203195797789 1.6202318105294393
H 3.223176453302784 2.1163348194554974 -0.1814974193920441
H 3.2585666965375717 -0.7739185449637493 0.9250963076230087
H 5.684340525307203 0.030101009740498022 -1.8006111333490948