14

C 0.8733427163064782 -0.020527236639538114 0.041251385272318246
N 2.3061326720636357 -0.0704921293528894 0.18278959985240797
C 3.0420563178640374 0.9491785242178783 0.9460095041798944
C 4.160429816500402 0.0018558314564099333 1.4076175020988104
S 3.0685954124328214 -1.3385192972091284 0.9571425507582193
O 2.3143723311217532 -1.7966652058656984 2.097127855522579
O 3.598436137907767 -2.3158450936879382 0.06136826239355351
H 0.6069237162976697 0.8621491174476005 -0.5336831762972549
H 0.3556749660375278 -0.0009340409800604227 1.005822219188223
H 0.5333190091483961 -0.8930790101455199 -0.5242909461275448
H 2.461275346958944 1.3394260246001681 1.781380592625787
H 3.3731706722605486 1.773604919885011 0.30365792560173344
H 4.408267419914032 0.02169224115303612 2.463621933358148
H 5.0493043673947335 0.016277827041942524 0.7779614581174893