13

C 0.9700258429573819 -0.0038973731695427735 0.07435254921990925
N 2.4129976951100227 -0.021015870542390343 0.07408275760529788
C 3.2076333074876535 1.1014540279236678 0.07896841134063103
C 4.523421871554344 0.856340951647201 0.08573903061462498
S 4.821037045849752 -0.8600111392996962 0.08275835265026053
C 3.088039387486475 -1.2161514279233732 0.07942934268731042
N 2.4796418283485173 -2.331325013904932 0.07341460323439687
H 0.6298888919209841 1.0271833229655971 0.07429993511467889
H 0.5887154777452646 -0.5290102608023517 0.9548914445652649
H 0.5927065547930281 -0.5225967531294425 -0.8051528949724447
H 2.7456279884780006 2.0785971320479684 0.07990335501772244
H 5.32435806776066 1.567052214172051 0.09232575221358263
H 3.11153062681847 -3.1279120574505974 0.0756842722118373