14

C 1.061497487517931 -0.04540062662112182 0.5042971064278722
N 2.3992110800336417 0.018313768700114957 -0.0821875992348372
C 3.215662511534162 1.1352207324196772 0.40372071113858476
S 4.147201890759386 -0.016597666335649085 1.4667891345621145
O 3.5397525515045127 -0.09612394875075231 2.7707574775422916
O 5.57220253499114 0.027557640032734462 1.3325800737115197
C 3.263432731613427 -1.089206020260048 0.2921905067658676
H 0.5039862677966231 0.8433852654518093 0.1953064275500391
H 1.066653404288308 -0.0943390522862703 1.5963039826070815
H 0.5497832262843043 -0.9160733225750601 0.11157116512160145
H 2.669000285324294 1.9131047832340982 0.9301159904708741
H 3.875137257475362 1.5479364002251872 -0.36415443787917445
H 2.7677981732027925 -1.946433462519449 0.7397053599194966
H 3.9399088218873533 -1.3963406113431187 -0.5093273785687403