13

C 1.7372538104099873 -0.39583198992008567 1.036177506882202
N 2.63145862481681 -0.027719823808313695 -0.023304881182124045
C 3.2286733452510954 -0.9430422771199698 -0.8537296875307159
C 4.087497892431808 -0.6755417327989691 -1.8812441298005036
S 4.557994417273876 -2.145368006535616 -2.609350162622496
N 3.670053320776567 -3.0935192874571853 -1.6309603496420604
C 3.0247695102046777 -2.351104245094501 -0.7597011433560429
H 1.4000752407904415 0.5051471882774013 1.540742271269333
H 2.216392490882483 -1.04119972268146 1.7801200925116116
H 0.851305978480765 -0.9238656108206615 0.6640285565570383
H 2.829536789654321 0.9435441863952561 -0.17114306053552758
H 4.454929084792247 0.27967213127161 -2.222364832500453
H 2.3902732661675046 -2.8465389387645037 -0.034592552307929285