13

C 2.0361730886185514 -1.2313064424105322 -0.12767706127745768
N 2.2259261874713725 0.17674630941048103 0.10997914519129365
C 2.9498457883400446 0.6593938550274757 1.1571555511460816
C 3.1809513123877093 1.975445550022648 1.4681404976493384
S 4.148030479148305 2.0718303307106227 2.867682121130204
C 4.184529023099764 0.37564506985691193 2.947402249566238
N 3.526740031475149 -0.23900597640328944 2.0106126879223156
H 1.4264058041348415 -1.3474904870472855 -1.0184416659364537
H 1.5357164966982835 -1.7277632041441642 0.7112448542986836
H 2.9935951039933038 -1.7483982207842304 -0.29391554436225575
H 1.803949028516429 0.8306570846110187 -0.5109612267522017
H 2.840775290766577 2.859374952017117 0.9513325268427988
H 4.718307551362891 -0.13499449680828082 3.7365227216985506