16

C 1.0216778836499956 0.07502436368519909 0.15980646976313384
N 2.466469660015909 0.12862362231606245 0.04505462235261843
C 2.9688540298627544 1.4686991581672084 -0.04700745686107324
S 4.754728156241936 1.4598476021866715 -0.10947518994378799
C 5.2390925695752655 0.7912031399641577 1.4546303312253137
O 5.134928294162144 0.5040205833323429 -1.1222982061334557
O 5.197168014699691 2.815797175683277 -0.19203238101905
H 0.7091655480451233 -0.9721213981985668 0.18786371244092587
H 0.48651162007393833 0.5719171777548413 -0.658006682956103
H 0.7032463721776573 0.5335546516791236 1.1056614598371175
H 2.7878218588366184 -0.39807827762459974 -0.7500549338058066
H 2.6787318607297115 2.055110798685451 0.8339764296156604
H 2.689094429897371 2.041360511112622 -0.9418758137030531
H 4.728608027805991 -0.1601485592614043 1.6017843623864245
H 4.9949527893081624 1.5049079000563712 2.2402290592557574
H 6.318593867422355 0.6487636087757971 1.3986111302838613