15

C 2.467957584324401 -1.2113735118511242 -1.1646299883741207
N 3.397724177028103 -0.9725448626323073 -0.08141098670436694
C 3.6930184494900846 0.2559416294471485 0.3465244218019876
S 3.020729553364078 1.6436486169544429 -0.2756982798506121
N 4.612021264295138 0.34509556867594926 1.3678644276643612
C 5.1156288745774035 -0.6770952941565269 2.1406789313114736
C 6.121277834733444 -0.5521811417437038 3.012083337045609
H 2.3465315203875026 -2.287782386306132 -1.2789859238511123
H 2.8361926373527457 -0.7926118126843469 -2.1015731450863537
H 1.5103093059230481 -0.7592373977895576 -0.9425269907283671
H 4.016471866190163 -1.7263907953547222 0.15366812874477476
H 4.873118961901506 1.2853838767909063 1.5809433430160853
H 4.60009314715163 -1.62867037733457 2.0520507959758563
H 6.650498648037819 0.3897028200494672 3.140297832245977
H 6.420893091027446 -1.3850569626027178 3.6198133416653193