13

C 2.305518753362674 -1.3086289604465697 0.4964491750044277
O 2.0851769119064008 0.040407833820168736 0.14693876731219832
C 2.789733170932253 0.9636185424104624 0.817231613772078
C 2.7034249849374388 2.312599221745584 0.6103449973465565
C 3.5637919571407513 3.0405949348317165 1.4764829610883703
C 4.2879154644658 2.248642678207387 2.312969582419854
S 3.932868668354568 0.584395260341512 2.0675230967801785
H 1.6574561412692388 -1.9038928923948129 -0.14232376246197398
H 2.0441384645255725 -1.4897871367305133 1.5508862916681803
H 3.3459590535874755 -1.5946146497063567 0.3298139584887714
H 2.040615459399784 2.7522937339198394 -0.122162734084107
H 3.6447138148365874 4.118038564967882 1.4649321942575904
H 5.008938057145759 2.531717240477629 3.0540442065181472