12

C 1.9506599006277252 -0.5251684528169417 1.163098062656375
O 2.6557180442279056 0.12060234513785162 0.12358914799829089
C 3.1794047542059913 -0.6726938501938142 -0.811634139907644
C 3.8929609457594587 -0.24874713802608384 -1.9025542115031315
C 4.2907646814689535 -1.35237863601835 -2.6740538427202827
N 3.9320642120278935 -2.546727999245523 -2.262597894993167
S 3.0667580154319345 -2.3941841419524126 -0.8671585762559293
H 1.5930880026329157 0.2522007244168713 1.83130135941126
H 2.604780096565611 -1.2131546294942306 1.7108716494716543
H 1.0926190294301155 -1.0846058307147344 0.7663059365199142
H 4.118522247938345 0.7880834944876355 -2.1135138302534044
H 4.865693554372688 -1.2842460936154598 -3.5907420430343238