12

C 2.6624062197045197 -1.2326860107461775 0.768434240995692
O 2.3121920466366728 0.05168924274451801 0.3152615533147344
C 3.0093121363998554 1.078343988837802 0.8150842527529847
N 2.6919279806494307 2.2847971026416816 0.39021816554703626
S 3.657807923553193 3.384543534393225 1.1164025329503098
C 4.535312693855807 2.263532744024583 2.0226308944691977
C 4.073933521755934 1.0051549514243 1.7562506821846737
H 1.9970764715578662 -1.9322787634620775 0.25809907834117746
H 2.514832063061775 -1.3309658344440278 1.8520439686830734
H 3.701553002071438 -1.4834716107208883 0.5222816161458876
H 5.328608873404075 2.542871567428957 2.6987805926865014
H 4.456142058839634 0.10317060458101449 2.210168297803094