12

C 2.004099481720639 -0.46853748145583735 0.9427918270701668
O 2.749222430099975 0.13871721511983529 -0.0895699546303858
C 3.206888430983133 -0.6679030931833602 -1.0570854724264407
C 3.9355445226969645 -0.20533942920357462 -2.1264118673472945
S 4.333675424491802 -1.5180846233015304 -3.1197244936472526
N 3.5931715560835875 -2.644132394710015 -2.208568010263314
C 3.0366907448214695 -2.0782325474394687 -1.1658454951163235
H 1.7217251280259973 0.3315803579481077 1.628991987380307
H 2.6153550573934687 -1.2065538097705382 1.4866280008316453
H 1.1085739959946699 -0.9552738675986825 0.5556997334144328
H 4.230273285804455 0.8095625948567495 -2.324550666991966
H 2.504275507427031 -2.7001250098645118 -0.4593806238500687