14

C 1.0804376323805074 -0.11130766923357757 -0.0874091276763975
S 2.7982016968088645 0.11944270439145778 0.250252065274614
O 2.913176702776784 0.9238120070650166 1.4378916235373664
O 3.4524686662825492 -1.1666424982669548 0.17123141643836115
C 3.3658920169152804 1.0681520638143922 -1.13316559264203
C 4.80217932245363 0.9380171429393596 -1.456621570678661
N 3.7877100610963543 0.3748434652501511 -2.3348608048035144
H 0.6936710110214954 -0.7279969893226808 0.7305593003726553
H 0.9589054362757504 -0.6280877819164632 -1.0361106455346047
H 0.5848680303203461 0.860698581507485 -0.08858495790049882
H 2.841451322567593 2.016649628358201 -1.2541353185098825
H 5.382411612776824 0.2594213632911752 -0.8475264295174206
H 5.317113648228238 1.8069033970410624 -1.835917776786831
H 3.72901931486967 -0.628151842364018 -2.174625922966278