13

C 1.208461168386428 -0.012632536906012128 -0.2830057353981429
S 2.8825713444724217 0.003162035617031627 0.2770407052321264
O 2.9066294640920107 0.2883193865809123 1.6782983353601941
O 3.537026871771997 -1.1546778367652806 -0.250409303014935
C 3.5614042978779867 1.4445119713203622 -0.5449578648989364
C 4.828612266438332 1.310640444984862 -1.2426161727016334
O 3.5965273937032776 1.400962571459507 -1.9386673494757594
H 0.7525946568992028 -0.8945751272781545 0.15565985441202748
H 1.2080403704069027 -0.08488987274875436 -1.3760447989596996
H 0.7047917504556115 0.8890059625312763 0.05159644625958504
H 3.2572573196159964 2.3795576670533243 -0.07200006847294566
H 5.3055306621005585 0.33956073270972925 -1.2697824023529745
H 5.46566335583922 2.180347017831059 -1.3236823441749446