15

C 3.701328980994306 0.492538466675788 1.6422063938169158
S 3.028812631530333 -0.12932396190708628 0.13037960688234185
O 3.7180589865947296 -1.342156712467029 -0.20213315377013397
O 1.5968958535985711 -0.12452004411143915 0.2418142316734199
C 3.4757294661697835 1.1102440018952229 -1.08607939144864
C 4.9431678875529945 1.2195364723260342 -1.299124177310788
C 5.63677022494861 2.3365703658207746 -1.0978664962852116
H 3.464527495641998 -0.27139022330943485 2.3981568257400947
H 3.2087402619163465 1.434011461024153 1.9046559019489226
H 4.771541982939246 0.6039798913583603 1.5496429700404042
H 3.0133332268228363 2.0485117792933796 -0.7829263890466391
H 2.954795360619227 0.7443271400754259 -1.9854272133640711
H 5.439830504538328 0.3210398986762311 -1.6428946699771176
H 5.153148386049491 3.250822304291603 -0.7636024210899657
H 6.7026677973699496 2.373015690001523 -1.2814803421432193