13

C 1.0383720017357116 0.31966473849351584 0.07304126391142789
S 2.7951822466415503 0.08376108337742594 -0.05081110575013962
O 3.1512189313276484 -1.020102660152456 0.7860627799872941
O 3.1484775948002666 0.09532796236372848 -1.4421849859948517
C 3.430352473136917 1.6014743871186596 0.7025064771498263
C 4.864778245157121 1.6121709173013803 0.7028618793324166
C 6.071767199931007 1.614505913624045 0.7030178845699272
H 0.599313660087239 -0.5677726377997176 -0.3755800227033671
H 0.7510810789350651 1.2027187964687875 -0.495302103293204
H 0.7548153972514208 0.39902709251367247 1.1225859423522628
H 3.026639107178257 1.6347109742687629 1.723263041800458
H 3.0189442452854123 2.433552237359605 0.12876528696942327
H 7.131483129073572 1.6106993845632256 0.6986447381629314