15

C 1.118815872497015 -0.15838919723512443 0.22332866078322416
S 2.882574181616664 -0.19623993948684285 0.3504024086515088
O 3.2432757604610183 -0.6146935529099703 1.672667457301972
O 3.3852258793224297 -0.9313281178712263 -0.7883080093796225
C 3.3936099806117332 1.5088227627368276 0.1371760379635402
C 4.896381152259567 1.5592520799503844 -0.1426258073093094
O 5.218583240846812 1.1712875301382866 -1.4433712460321442
H 0.7950463633790367 -1.1832208777605007 0.37461035552739885
H 0.8334360295400238 0.19944084869455553 -0.7636829417978777
H 0.7244742964715463 0.48209188390672125 1.0155155463895296
H 3.123836590282319 2.025462647841628 1.0530028098119515
H 2.8386556672762104 1.9234739283731688 -0.7092158849181461
H 5.42447518269876 0.9716866949210012 0.612170769244336
H 5.215462835384071 2.603373248098304 -0.023443175223259085
H 4.905132085514168 0.26011687697630675 -1.5590109969601442