14

C 1.0766565109033714 0.03698454214398936 0.03733168396271001
S 2.8143042070728645 -0.23043386821803152 -0.030833229323679007
O 3.0836172988780604 -1.2968274874881267 -0.9680621107682877
O 3.478361554356565 1.0294987094181762 -0.19430593424501014
N 3.0979211528056068 -0.7134718098386904 1.5334293318372403
C 3.2490017541091873 -2.1471366918591435 1.7833149530702468
C 4.4300504744137035 -1.271957096550677 1.7763240352048597
H 0.7785709372966123 0.37703082356531964 -0.9528584474960805
H 0.8756779717689999 0.7993732302429587 0.7887778692671156
H 0.5789817085783137 -0.9009208059671961 0.2891405513552697
H 3.127668543670064 -2.8158771494654613 0.9391270289521132
H 2.8132787675658735 -2.478475679107053 2.728535924997999
H 5.096781222524672 -1.3530516143057087 0.923387357491238
H 4.8891589202429495 -0.9437800130047992 2.7012363849460073