12

N 1.0034373959631717 0.20087692861198406 0.04536699575559659
C 2.4176429851414953 0.05473507291333169 0.04660196893180083
C 3.179063720895794 1.1863665485368031 -0.07541471846674518
O 2.7069781371081945 2.434471518757888 -0.19615464720367046
S 4.857479286741596 0.850136442404482 -0.05594251978465279
C 4.552511006283052 -0.8374122363864702 0.11494899951252366
C 3.2322584662984264 -1.1142526411098597 0.15266996033512267
H 0.5820761556551483 -0.13248673523251311 0.9031290779928487
H 0.564895922840061 -0.291954106393751 -0.7257978856695753
H 1.739862229672712 2.324770244869568 -0.17112733701109328
H 5.384425353760498 -1.5197745066060522 0.16962832752795917
H 2.826247363809154 -2.1123069867594624 0.2590934839263679