13

N 0.9245978987496675 -0.1901789274149085 -0.15106936577931498
C 2.311700561838675 -0.05787381616777201 -0.0643027836767353
C 3.0419679992136186 1.093951419926272 -0.08580293149513052
S 4.723807777239924 0.7770543283790955 -0.01848418740055297
C 4.470594658800963 -0.909408829580444 0.04153077827453307
C 3.142463620160995 -1.2250649260420376 0.0031721510125287357
N 2.5537466496735703 -2.4847955847021184 0.07902147879774858
H 0.4375855240644851 0.691974769493563 -0.0714050737708332
H 0.5595240153953712 -0.8531230661304975 0.5324291712910029
H 2.6785122219717437 2.1082370309139367 -0.12440913646728476
H 5.305643294986129 -1.5962823760997542 0.0792931474891747
H 3.2149879098386953 -3.238556946066812 0.0020905650006252836
H 1.8132506696392783 -2.605049023135072 -0.601669694633542