12

N 1.0263985287808783 0.019402416746020633 -0.07808053159479454
C 2.392863538459538 0.1298556858373891 -0.07239568516619256
C 3.149414894785336 1.2680585962569797 -0.07292027229984112
S 4.822943078502296 0.926416567036302 -0.0578490060953194
C 4.547514609873576 -0.7614785073683613 -0.06594714388691181
C 3.218517841259909 -1.0401376602517052 -0.06685447840830178
O 2.6028097138276998 -2.2501922825819802 -0.07521297651499737
H 0.44052219538363047 0.8250295922043582 -0.0770463366923255
H 0.6055267842615855 -0.8873466713894768 -0.07527923434682793
H 2.796936444038076 2.286105757544732 -0.06783306479548049
H 5.367174312564293 -1.4559243091660086 -0.06419692371602699
H 3.2633281271904107 -2.9438206403644456 -0.06971375977189279