12

N 0.9029090212591133 -0.053964366593258865 0.028841023644548696
C 2.272388213004431 0.02240493122844958 0.038936111204724407
C 3.0010580523533403 1.18223806664267 0.03609057862208143
S 4.699692428313804 0.8486215031256219 0.048796164489996734
C 4.410530413768674 -0.8506215434373768 0.04927658121197506
O 5.415349704165171 -1.7607670834105769 0.05764930378053863
C 3.087813717067982 -1.1509474313604167 0.043235677309685874
H 0.3403849973990038 0.7731347973472352 0.030794746681133217
H 0.4448072480674404 -0.9433987854611127 0.034991491245498885
H 2.6503851363785396 2.1936353146916105 0.035123979252991946
H 6.266891730088378 -1.3119075341344737 0.05359025641333056
H 2.711240863083234 -2.1602662240498463 0.03995639666912456