9

N 0.9924464955667807 0.09055063171008303 0.03158412329595445
C 2.1421941223936605 0.08605858749548798 0.03821036116209881
C 3.553556297069047 0.04962392256404689 0.04218296180192934
C 4.418823380050164 1.117490758827541 0.036172215056881736
C 5.750826160352562 0.6444943598283908 0.043452728593112624
N 5.904763601048884 -0.6566265050870893 0.04544638982276824
S 4.4544667785458945 -1.396158483665792 0.040236659495903236
H 4.1193739399912666 2.1531461247871957 0.03545480745591479
H 6.6282789288432475 1.2766909114804081 0.04697602512569958