13

N 3.077061943694855 0.4466972742065996 -1.081443567665388
C 2.407174144672654 -0.2863585798594954 -0.0338020858478032
C 2.8494794747225383 0.20564654352319192 1.3141334032343475
C 3.442756688698209 1.3841977581187073 1.63354364557273
N 3.72450371411801 1.575682461156472 2.9631368289184103
C 3.3688202533587943 0.5461815272395137 3.6578571115936582
S 2.652745534877073 -0.7318782256849434 2.736248983316206
H 2.6889731106307826 0.2184445830418302 -1.98518472158523
H 4.06754994789309 0.22290154396481793 -1.101876090101614
H 2.53899155113338 -1.3804342860989238 -0.08373615709629902
H 1.3335612822617526 -0.10766752723969972 -0.14100850495477302
H 3.6761042726893267 2.1599795736190788 0.9211836739336592
H 3.484226267238282 0.45962555839008035 4.72863243400855