9

N 0.9378258851124971 0.11404310845864868 0.07136706785773846
C 2.090765327582819 0.07173511255136436 0.06322715279812496
C 3.5030836537043304 -0.033648588615097785 0.06536326399102568
N 4.317355855958573 0.9869718145620819 0.055881552109304254
C 5.602278721410442 0.5567562213515937 0.05051049896725886
C 5.781111219178459 -0.7883437493089975 0.06198526430316431
S 4.277320132598775 -1.5696717675269911 0.06291636230551224
H 6.4036443740842275 1.2900365034542831 0.04720249794914854
H 6.701230430117677 -1.3556037717221054 0.055554971950660344