13

N 3.4257776837597427 -0.2471479962118827 -1.0270370793205341
C 2.346616515486908 -0.06581992944843965 -0.0653264572691036
C 2.8296069724293553 -0.28701366926336913 1.3310049685460918
N 2.9945920275218154 0.6482474742724517 2.2115877685260243
C 3.458773567005037 0.14804107812853357 3.3887210625517703
C 3.6538004196792606 -1.192887361901119 3.4263258015804094
S 3.226143686710319 -1.869300391464709 1.9211696308609678
H 3.0894716229257306 -0.03338163657266466 -1.9650637729014666
H 3.7377904875065373 -1.2047978722132484 -1.0346203245527021
H 1.4712187455261951 -0.6998497027429563 -0.2463525257964823
H 2.0178991239560116 0.9731761972252257 -0.09773319098535355
H 3.653493238762519 0.8244392690993964 4.219457496043909
H 4.01271038920581 -1.8037078415087027 4.241837281938243