13

N 3.9014531695404617 -1.5505928570805978 -0.20556872910836305
C 2.85878086614992 -0.6992755805056775 -0.08175437209076478
S 1.2946458538742607 -1.2390753439553406 0.12476196779268045
N 3.166507332028766 0.6161480037902793 -0.10156912612707503
C 4.504635096676245 1.1617474431619792 -0.13089112941226697
C 4.476180696468614 2.599890400223556 0.02093500152376797
C 4.443018321320928 3.79516671629455 0.14833072711643278
H 3.6612926514512423 -2.5248122380785123 -0.2997610474771841
H 4.785445532065322 -1.2553506448701002 -0.5800889114819509
H 2.3847441628113377 1.2379545743201734 0.03991290589819523
H 4.991333440715211 0.922801962555928 -1.0886101614432335
H 5.114033453895227 0.7251333528933535 0.6667198869086302
H 4.419794541248103 4.853606106393832 0.2577504770415758