12

N 1.142921666183551 0.03724815992963459 0.20720997290788964
S 2.7745562657365404 0.13435241995156175 -0.05128908339912462
O 3.0906725067411913 -0.686764370385214 -1.1762233268347209
O 3.1427633513174627 1.5143332936225913 0.024241208119655976
C 3.3942980268235337 -0.680725773151907 1.4241041257970173
C 4.83467996828964 -0.717553768933967 1.4446943813363993
C 6.037603378600879 -0.7483927050561574 1.457470365600181
H 0.6889332817621306 -0.5316411765276379 -0.48911694841119147
H 0.7278551832875808 0.9507090493922243 0.31535521031200925
H 2.960584456759968 -1.6768718560693958 1.4328068802400364
H 2.99342450964643 -0.11467994009401522 2.2760128466512475
H 7.105465441471979 -0.7787813883706359 1.458291246754138