13

O 0.8951632108927046 0.4838086907295274 0.032440996834024176
C 2.240336016387616 0.24991502997717976 -0.06869646794762382
C 3.0993272625002164 1.1377915790830808 0.8404249550656123
C 4.101065774083468 0.07606267987286282 1.3254417722996994
S 2.9707732606333863 -1.2168572758244778 0.7881108636100083
O 2.1242781628546847 -1.646859685159035 1.8669191209374096
O 3.5630710822263962 -2.182476415041229 -0.10300352012100986
H 0.41536468779167024 -0.058108001224630314 -0.5966328153100074
H 2.6099129041107743 0.2126062027167871 -1.1019783540037795
H 2.4727834064500653 1.498820646093675 1.6561846631968034
H 3.5489364271638926 1.995429905834823 0.3310968567888523
H 4.312453968050183 0.05582249396088927 2.3956482862771766
H 5.014051507613619 0.02637652824094102 0.7419966009234691