13

O 1.422375029257747 -0.8522848479731308 -0.563022086202119
C 2.3566527991589163 0.023868171596814942 0.0181643863994901
C 2.8246073845609594 1.0064467789981395 -1.0072515143935252
C 2.8305902871431337 2.358086422836039 -0.8355640036789401
S 3.4710009299869826 3.1664681657721694 -2.1963990088329353
C 3.7349062605266625 1.6926514403416537 -3.019105200939806
C 3.3516397581703705 0.6256003031198476 -2.275428993738556
H 1.2465989716653607 -1.570276065238569 0.05370636595127632
H 3.2220202480845095 -0.5333229490675285 0.4099704309252717
H 1.918191271326267 0.5725539694643617 0.8638231720845424
H 2.4893439076653334 2.916865693419254 0.021411319741362542
H 4.166401824581718 1.6970655615648083 -4.018189266319864
H 3.417664378011473 -0.40456484410380683 -2.610263650500812