10

O 2.4531719150682623 -1.175050116487076 0.3176220135074331
C 2.229013072303873 -0.02037272872050244 0.0933817509674545
C 2.885424221469873 0.7441600858145169 -0.9833172490765577
N 2.5619016434052164 2.0108400131558755 -1.144266143330407
S 3.422941438971866 2.6285691617979037 -2.3829447707484945
C 4.261482059809319 1.203989524189564 -2.742088225612362
C 3.8524837841809916 0.22765570013276684 -1.876106369258736
H 1.498630855716219 0.5715348179145369 0.6835098279209065
H 4.97686830254317 1.1399495500086767 -3.549649754525895
H 4.208487525510027 -0.7890460812966673 -1.8666095027662968