10

O 1.3541596334192858 -0.15813624776153204 0.8247783348809758
C 2.203532945615618 0.05062609076252513 -0.006080274022069872
C 2.844986276546026 -0.9833934168081162 -0.8130099317224212
C 3.8114625253871623 -0.8017215511942333 -1.7701607742934624
N 4.249371198546142 -1.9301971005305893 -2.3928524880929603
C 3.6092416279684456 -2.962618014187238 -1.9215136864013096
S 2.456660001999665 -2.6482806621542254 -0.701744254857479
H 2.5827295094883223 1.0741679036158667 -0.2118904589341081
H 4.240683394861325 0.15359546969774152 -2.035850573010545
H 3.7914061817366314 -3.9781474786752176 -2.264523506476305