12

O 0.9861627641493577 -0.612995549806127 0.04696594361688559
C 2.208582410399118 0.08636134819179128 0.1405729330202684
C 2.7095606360141105 0.38925623786714464 -1.2182791888421478
C 3.053400134734677 1.6026060097898327 -1.7441688795352615
N 3.5312365217340784 1.6000948038870808 -3.023256088506079
C 3.543790505379237 0.3915764276646946 -3.485135932996228
S 2.9909347388446688 -0.8229553887350068 -2.409566012853995
H 0.750328323129515 -0.9448076503531312 0.9186683128655693
H 2.953378529532579 -0.5174216663920502 0.696029132122048
H 2.0891537821395847 1.0356438054626673 0.676627970867682
H 2.978561344708399 2.533618871572343 -1.2059719951927605
H 3.865173406557487 0.14096877295805035 -4.489015793354752