9

O 2.869582183379987 -0.7303178504507477 -0.8304027581263875
C 2.294951525271007 -0.02866924622953325 -0.06738086712891223
S 3.1154177744558056 1.1689595360133513 1.0558195594794157
O 2.699766579583659 2.4710795570146993 0.6310177599951616
O 2.868319522276013 0.7214412604545392 2.3857309751293516
C 4.769428386428783 0.9523083396458855 0.6849662425809286
C 5.927355383781554 0.7953166735896633 0.42543850186232796
H 1.2008621223824139 0.011623250995954255 0.07756617102803208
H 6.957382705534318 0.665550977093351 0.1912145581036379