11

O 2.770120645852861 -0.8350476039192479 0.967583943712635
C 2.4744527425981815 -0.07324021444291233 -0.1358533581469734
S 2.956703144970067 1.6460641272576833 0.06327130833303923
O 2.5506400862385328 2.3724023802215903 -1.0897056249425723
O 2.5279420396540306 2.022804309875913 1.3784981194576102
C 4.669505469124898 1.562284369775791 0.08612565129390995
C 5.866696143422458 1.5157519252006293 0.08669124507648082
H 2.3852675745920076 -0.41829253152584883 1.7441731888595515
H 1.3949673166630654 0.0005771716952368841 -0.3661696682217972
H 2.9941644315947675 -0.4766722401267877 -1.0081372254257426
H 6.939451118937074 1.475104996103515 0.08822374818040371