11

O 0.9871990834292348 0.03289204877513153 0.18508737572229875
S 2.411400981606414 0.032053164634687846 0.3035887383296616
O 3.0102837827534854 0.03247139327100302 1.5988026366716637
C 3.1160866174744966 1.313019749597167 -0.7086307400598821
C 3.8063610009140962 0.7648779104757286 -1.7006705766751442
C 3.81351626893922 -0.710335126704369 -1.7022086267005876
C 3.1093133253788725 -1.249746246260607 -0.7065293199544614
H 2.9463051830305313 2.35356444130817 -0.46397995983307994
H 4.33623642122028 1.3369955685056898 -2.4488266636568214
H 4.337348837987031 -1.2841826163925267 -2.4500579280819883
H 2.941904498901107 -2.288369745031307 -0.46066455398048345