13

O 1.0457206386840718 0.09900680209535373 -0.15274254608048016
S 2.4857974370737117 0.08642484911103783 -0.1713982999496501
O 3.1689392802542113 0.21856839594319033 -1.4287140664557323
C 3.1002330213872296 -1.3429748846352372 0.7334492748671485
C 3.444002358943801 -0.8484945515507575 2.141336969755766
C 3.53351162446511 0.6490828033636902 2.0969425990635946
C 3.097755679045547 1.2386222898334893 0.9977064951356053
H 3.9837947617884866 -1.685378214094032 0.19291544715068973
H 2.3280913007477158 -2.108473034030326 0.7043442176406317
H 4.382161672038709 -1.2805580754813035 2.495277364662097
H 2.6733521386125774 -1.1491366156548455 2.866873388271827
H 3.9106963832589248 1.1989826914013626 2.9502100824453357
H 3.0387690211111047 2.296801794500331 0.7810200839025628