15

O 1.034063616519393 -0.032756375600166074 0.6113592446282309
S 2.3481436973431373 0.06718334768876882 0.014468430703395397
O 2.4742710537839474 0.25262621285904985 -1.4111224910544906
C 3.300209765209785 1.3279347001902928 0.872177400754579
C 4.600415275376193 0.6426674063912371 1.270339136523644
C 4.235697508818964 -0.7892774224514576 1.6580932932751433
C 3.3580034797540343 -1.32235455167956 0.5335607522788294
H 2.7113997059520494 1.6281935640814755 1.7455756819644506
H 3.4155989160000564 2.175356441746914 0.20459628986264308
H 5.08842514833077 1.173660060914978 2.0956118691538084
H 5.297364532138408 0.63916190605217 0.4287793077164243
H 3.67222970022397 -0.7953601017911858 2.592033528255727
H 5.118886800777691 -1.4153199924156523 1.799339259556206
H 2.6847727399727974 -2.1292107341022835 0.8126664697727027
H 3.9469022532195193 -1.619500716585235 -0.33892040713674826