12

O 1.042793330344496 0.12265714055900494 0.35488459755287954
S 2.456376041340347 0.1192323213628435 0.15008985773047054
O 3.314459796243326 0.23093761813423805 1.2956214657246528
C 2.967644853107469 -1.2276634383188512 -0.9224135898675844
C 3.4516681962653695 -0.5789052050258365 -2.1756850391664737
C 3.3679493878990527 0.7538777914045638 -2.1381886107340904
N 2.8646957119966503 1.2879222081883748 -0.9734670679126121
H 2.091160404876559 -1.868301981428938 -1.0653822744988795
H 3.741144296612229 -1.787106573852088 -0.3818219273486513
H 3.833246186732094 -1.1388780520605697 -3.0174952660082197
H 3.66632964526949 1.4364989770022938 -2.929137458885395
H 2.740111306540442 2.2650086005206345 -0.7759794640825243