11

O 0.9291879985352417 0.018012511095250094 0.22292042430684827
S 2.3456818305492915 0.07306108678810233 0.0589130458735346
O 3.201374781549688 0.31938083063980954 1.170977698000728
C 2.940022653449881 -1.2931826692934318 -0.9388707699354997
C 3.3837413886351486 -0.6366501672831221 -2.2010567485850157
C 3.208044354662999 0.6722682946981349 -2.1762992803700554
O 2.6607431731418782 1.233529311042419 -1.055161476850473
H 2.117131816571074 -1.9971110221748636 -1.0612185127585851
H 3.748598906545567 -1.7806722628154887 -0.3713801982754865
H 3.8084055383829103 -1.1793726299084635 -3.028885315998329
H 3.4384266154203647 1.396249466798709 -2.954060315879002