10

O 0.94690165419049 -0.010741407821702001 0.264158993439638
S 2.3812124394509264 0.018809210746482008 0.39244831977985023
O 2.98725238928089 -0.01020198418823913 1.689186010948988
C 3.0740721647106146 1.293988499962976 -0.6154124820620065
C 3.765053298149343 0.7150329544747016 -1.5939688670855192
N 3.7972255386941076 -0.7092326170501567 -1.6402337034090584
C 3.1322911815704146 -1.2170503438755134 -0.6830138468804907
H 2.9234642749416824 2.340044869986696 -0.39716917826349246
H 4.311938394354334 1.2317946881881234 -2.3656112660075514
H 3.0022802496710015 -2.271065044433484 -0.5046807961510921