12

O 1.0791023968289792 0.04796926642134039 -0.2339345945134677
S 2.497824239545531 -0.0311786145318577 -0.25125592530245633
O 3.1909125510451144 -0.05673530419087939 -1.5108623007883417
N 3.0289571250456238 -1.3362424831661786 0.6543719264855448
C 3.437727530045146 -0.9080094489502515 1.9867794158236063
C 3.5320474313911356 0.5883730829843499 1.9822530220125798
C 3.119902585312564 1.1724984726438354 0.8701608448022987
H 3.7673716667395207 -1.7925386605529963 0.13331827858423598
H 4.3891592263144465 -1.3724242777977147 2.240765504101657
H 2.7112861549609693 -1.236915625932415 2.7368246882889404
H 3.8720159110625803 1.1179234640307472 2.8697549102425017
H 3.0456851995544914 2.2195781709899642 0.6442932981505566