9

O 1.0620633389183904 0.04071462897763288 0.12893612647186872
S 2.4804702747559264 -0.03403951258798051 -0.004894862083179812
O 3.085748700517315 -0.6424879707160387 -1.13708061112274
C 3.1071546640590677 1.5487509601650593 0.16060097834354747
C 3.5242542354275583 2.66877319260142 0.22915670336046992
C 3.1025179512201437 -0.7637105116495345 1.4043991874506738
C 3.521363630492659 -1.3270166791018323 2.3831709861966575
H 3.8970197806797606 3.6730389665536047 0.29157047025886246
H 3.899323100339585 -1.8224935934957285 3.248461776373828